#
#
#

#
#

@<TRIPOS>MOLECULE
Panda
41 1
SMALL
NO CHARGES


@<TRIPOS>ATOM
1 O1 -1.97093 0.465731 2.29493 O 0 GLU
2 O2 -1.15987 0.459394 1.03314 O 0 GLU
3 C3 -0.0183804 1.25999 -1.48161 C 1 GLU
4 C4 0.00227886 1.50065 -0.00119034 C 1 GLU
5 C5 0.0229381 1.74131 1.47923 C 1 GLU
6 C6 -0.0102005 -2.16509 -1.3608 C 2 GLU
7 C7 0.0091547 -1.50578 -0.0136026 C 2 GLU
8 C8 0.0285099 -0.846463 1.33359 C 2 GLU
9 O9 -5.34572 0.996624 0.168113 O 3 GLU
10 O10 -4.512 1.11519 0.707411 O 3 GLU
11 O11 -3.67827 1.23375 1.24671 O 3 GLU
12 O12 -2.84454 1.35231 1.78601 O 3 GLU
13 O13 -2.01082 1.47088 2.32531 O 3 GLU
14 C14 -5.32154 0.0150813 0.127936 C 4 GLU
15 C15 -6.3141 -0.000756918 0.00715964 C 4 GLU
16 C16 -0.84103 -0.169649 -0.823385 C 5 GLU
17 C17 0.108535 0.0855165 0.309407 C 5 GLU
18 C18 1.0581 0.340682 1.4422 C 5 GLU
19 O19 0.495501 0.00537112 0.00308399 O 5 GLU
20 C20 -3.00469 0.000408362 -1.13706 C 6 GLU
21 C21 -3.01122 1.00032 -1.14835 C 6 GLU
22 H22 -6.3 -1 0 H 7 GLU
23 H23 -1.97093 0.465731 2.29493 H 0 GLU
24 H24 -2.01082 1.47088 2.32531 H 3 GLU
25 H25 -5.34572 0.996624 0.168113 H 3 GLU
26 H26 -5.32154 0.0150813 0.127936 H 4 GLU
27 H27 -1.15987 0.459394 1.03314 H 0 GLU
28 H28 0.108535 0.0855165 0.309407 H 5 GLU
29 H29 -6.3 -1 0 H 7 GLU
30 H30 -6.3141 -0.000756918 0.00715964 H 4 GLU
31 H31 0.5 1.5 0 H 7 GLU
32 H32 0.00227886 1.50065 -0.00119034 H 1 GLU
33 H33 0.5 -1.5 0 H 7 GLU
34 H34 0.0091547 -1.50578 -0.0136026 H 2 GLU
35 H35 0.495501 0.00537112 0.00308399 H 5 GLU
36 H36 -0.5 -1.5 0 H 7 GLU
37 H37 -3 -1 -1.15 H 7 GLU
38 H38 -0.5 1.5 0 H 7 GLU
39 H39 -3 2 -1.15 H 7 GLU
40 H40 -3.00469 0.000408362 -1.13706 H 6 GLU
41 H41 -3.01122 1.00032 -1.14835 H 6 GLU
@<TRIPOS>BOND
1 1 1 4
