#
#
#

#
#

@<TRIPOS>MOLECULE
Panda
629 133
SMALL
NO CHARGES


@<TRIPOS>ATOM
1 C1 3.01417 -3.16643 -1.50388 C 0 GLY
2 C2 3.00092 -2.99834 -0.0133836 C 0 GLY
3 C3 2.98767 -2.83024 1.47711 C 0 GLY
4 C4 6.01405 -3.16754 -1.47708 C 0 GLY
5 C5 6.0008 -2.99945 0.01341 C 0 GLY
6 C6 5.98755 -2.83135 1.5039 C 0 GLY
7 O7 2.48763 -3.99523 -3.59209 O 1 GLY
8 O8 2.53097 -3.99618 -4.59115 O 1 GLY
9 O9 6.5062 -3.99362 -3.60754 O 2 GLY
10 O10 6.48009 -4.0097 -4.60707 O 2 GLY
11 O11 2.46617 -3.24443 -4.5962 O 3 GLY
12 O12 3.46595 -3.24801 -4.61675 O 3 GLY
13 O13 4.46574 -3.25159 -4.63729 O 3 GLY
14 O14 5.46552 -3.25517 -4.65783 O 3 GLY
15 O15 6.4653 -3.25875 -4.67838 O 3 GLY
16 O16 2.46804 -2.74445 -4.5923 O 3 GLY
17 O17 3.46782 -2.74803 -4.61285 O 3 GLY
18 O18 4.46761 -2.75161 -4.63339 O 3 GLY
19 O19 5.46739 -2.75519 -4.65394 O 3 GLY
20 O20 6.46717 -2.75877 -4.67448 O 3 GLY
21 O21 2.47736 -2.99838 -4.09437 O 3 GLY
22 O22 3.47715 -3.00196 -4.11492 O 3 GLY
23 O23 4.47693 -3.00554 -4.13546 O 3 GLY
24 O24 5.47671 -3.00912 -4.15601 O 3 GLY
25 O25 6.4765 -3.0127 -4.17655 O 3 GLY
26 H26 2 -3 0 H 4 GLY
27 H27 7 -3 0 H 5 GLY
28 H28 2.5 -5 -3.6 H 6 GLY
29 H29 6.5 -5 -3.6 H 7 GLY
30 O30 4.03846 -13.5996 1.19157 O 8 GLY
31 O31 5.34121 -13.675 1.93126 O 8 GLY
32 C32 2.99004 -12.6682 -1.50315 C 9 GLY
33 C33 2.99977 -12.5005 -0.0125795 C 9 GLY
34 C34 3.00949 -12.3329 1.47799 C 9 GLY
35 C35 2.96778 -16.1682 -1.35323 C 10 GLY
36 C36 2.99651 -15.51 -0.00569614 C 10 GLY
37 C37 3.02523 -14.8517 1.34184 C 10 GLY
38 O38 5.42341 -12.6792 2.02221 O 11 GLY
39 O39 6.393 -12.7644 1.79278 O 11 GLY
40 O40 7.36258 -12.8496 1.56335 O 11 GLY
41 O41 8.33217 -12.9348 1.33391 O 11 GLY
42 O42 9.30176 -13.02 1.10448 O 11 GLY
43 C43 9.31041 -13.9891 0.00872805 C 12 GLY
44 C44 9.27196 -14.0086 1.0078 C 12 GLY
45 C45 3.75636 -14.0982 -0.923863 C 13 GLY
46 C46 2.89086 -13.9099 0.286699 C 13 GLY
47 C47 2.02536 -13.7216 1.49726 C 13 GLY
48 O48 2.48582 -14.0168 0.0137516 O 13 GLY
49 C49 5.99859 -13.9986 -1.14954 C 14 GLY
50 C50 6.0045 -12.9987 -1.15746 C 14 GLY
51 H51 9.3 -15 0 H 15 GLY
52 O52 7.30107 -6.66864 0.700634 O 16 GLY
53 O53 8.74397 -6.59544 1.10399 O 16 GLY
54 C54 6.03562 -5.65514 -1.49303 C 17 GLY
55 C55 6.00189 -5.4937 -0.00212756 C 17 GLY
56 C56 5.96815 -5.33227 1.48878 C 17 GLY
57 C57 5.97502 -9.07273 -1.41165 C 18 GLY
58 C58 5.99514 -8.51011 -0.0213072 C 18 GLY
59 C59 6.01525 -7.94749 1.36904 C 18 GLY
60 O60 8.81964 -5.61595 1.20686 O 19 GLY
61 O61 9.65528 -5.708 0.665353 O 19 GLY
62 O62 10.4909 -5.80006 0.123841 O 19 GLY
63 O63 11.3266 -5.89211 -0.41767 O 19 GLY
64 O64 12.1622 -5.98416 -0.959182 O 19 GLY
65 C65 12.304 -6.99282 0.0157608 C 20 GLY
66 C66 12.1155 -6.97903 -0.966218 C 20 GLY
67 C67 6.5813 -7.45892 -1.05342 C 21 GLY
68 C68 5.93802 -7.04766 0.237727 C 21 GLY
69 C69 5.29474 -6.6364 1.52887 C 21 GLY
70 O70 5.49805 -7.00324 0.00437557 O 21 GLY
71 C71 8.99429 -7.00123 -1.15457 C 22 GLY
72 C72 8.99412 -6.00124 -1.15237 C 22 GLY
73 H73 12.3 -8 0 H 23 GLY
74 C74 -5.99333 -3.16076 -1.4967 C 24 GLY
75 C75 -5.99813 -3.01386 -0.00391773 C 24 GLY
76 C76 -6.00292 -2.86697 1.48886 C 24 GLY
77 C77 -2.99336 -3.15116 -1.48801 C 24 GLY
78 C78 -2.99816 -3.00426 0.00477287 C 24 GLY
79 C79 -3.00295 -2.85737 1.49756 C 24 GLY
80 O80 -6.50592 -3.99615 -3.60111 O 25 GLY
81 O81 -6.41924 -3.98302 -4.59726 O 25 GLY
82 O82 -2.49213 -4.00221 -3.60578 O 26 GLY
83 O83 -2.46017 -4.00096 -4.60527 O 26 GLY
84 O84 -6.47739 -3.24694 -4.60693 O 27 GLY
85 O85 -5.47741 -3.25014 -4.60248 O 27 GLY
86 O86 -4.47742 -3.25333 -4.59802 O 27 GLY
87 O87 -3.47744 -3.25652 -4.59356 O 27 GLY
88 O88 -2.47745 -3.25971 -4.58911 O 27 GLY
89 O89 -6.47607 -2.75051 -4.54736 O 27 GLY
90 O90 -5.47609 -2.7537 -4.54291 O 27 GLY
91 O91 -4.4761 -2.75689 -4.53845 O 27 GLY
92 O92 -3.47612 -2.76008 -4.53399 O 27 GLY
93 O93 -2.47613 -2.76328 -4.52954 O 27 GLY
94 O94 -6.47914 -3.05829 -4.08071 O 27 GLY
95 O95 -5.47915 -3.06148 -4.07626 O 27 GLY
96 O96 -4.47916 -3.06467 -4.0718 O 27 GLY
97 O97 -3.47918 -3.06787 -4.06735 O 27 GLY
98 O98 -2.47919 -3.07106 -4.06289 O 27 GLY
99 H99 -7 -3 0 H 28 GLY
100 H100 -2 -3 0 H 29 GLY
101 H101 -6.5 -5 -3.6 H 30 GLY
102 H102 -2.5 -5 -3.6 H 31 GLY
103 O103 -5.7135 -13.8117 1.28477 O 32 GLY
104 O104 -4.25517 -13.8779 0.939941 O 32 GLY
105 C105 -2.98816 -12.6204 -1.48789 C 33 GLY
106 C106 -3.00075 -12.4919 0.00654116 C 33 GLY
107 C107 -3.01334 -12.3634 1.50098 C 33 GLY
108 C108 -2.99272 -16.1683 -1.35165 C 34 GLY
109 C109 -2.99453 -15.5159 -0.00096892 C 34 GLY
110 C110 -2.99634 -14.8635 1.34972 C 34 GLY
111 O111 -8.97727 -13.0138 -0.982348 O 35 GLY
112 O112 -8.15361 -12.9632 -0.417524 O 35 GLY
113 O113 -7.32996 -12.9126 0.147301 O 35 GLY
114 O114 -6.5063 -12.862 0.712126 O 35 GLY
115 O115 -5.68264 -12.8115 1.27695 O 35 GLY
116 C116 -9.06724 -14.0052 -0.97089 C 36 GLY
117 C117 -9.30487 -14.0002 0.000451493 C 36 GLY
118 C118 -3.65742 -14.3694 -1.02132 C 37 GLY
119 C119 -2.94326 -13.9989 0.244658 C 37 GLY
120 C120 -2.22911 -13.6284 1.51064 C 37 GLY
121 O121 -2.50823 -13.9954 -0.00177994 O 37 GLY
122 C122 -6.00242 -14.0021 -1.16429 C 38 GLY
123 C123 -5.9958 -13.0022 -1.15468 C 38 GLY
124 H124 -9.3 -15 0 H 39 GLY
125 O125 -8.30253 -7.19544 2.01855 O 40 GLY
126 O126 -6.93859 -7.15319 1.39574 O 40 GLY
127 C127 -6.02088 -5.63552 -1.51427 C 41 GLY
128 C128 -5.99962 -5.49594 -0.0209294 C 41 GLY
129 C129 -5.97836 -5.35636 1.47241 C 41 GLY
130 C130 -5.99437 -7.57117 -1.1758 C 42 GLY
131 C131 -5.99704 -8.50439 -0.00145605 C 42 GLY
132 C132 -5.99972 -9.43761 1.17289 C 42 GLY
133 O133 -12.1556 -5.99024 1.0212 O 43 GLY
134 O134 -11.1821 -6.04252 1.24366 O 43 GLY
135 O135 -10.2085 -6.09481 1.46613 O 43 GLY
136 O136 -9.23498 -6.1471 1.68859 O 43 GLY
137 O137 -8.26144 -6.19938 1.91105 O 43 GLY
138 C138 -12.2298 -6.99433 0.991736 C 44 GLY
139 C139 -12.3009 -6.99908 -0.00572072 C 44 GLY
140 C140 -6.86279 -6.47849 -0.636942 C 45 GLY
141 C141 -5.85313 -6.94771 0.368254 C 45 GLY
142 C142 -4.84348 -7.41693 1.37345 C 45 GLY
143 O143 -5.51405 -6.9979 0.0042408 O 45 GLY
144 C144 -9.01098 -7.00166 -1.14508 C 46 GLY
145 C145 -9.00892 -6.00167 -1.14833 C 46 GLY
146 H146 -12.3 -8 0 H 47 GLY
147 C147 -3.00871 2.8399 -1.49938 C 48 GLY
148 C148 -3.00886 2.99045 -0.00695244 C 48 GLY
149 C149 -3.00901 3.141 1.48547 C 48 GLY
150 C150 7.49129 2.84311 -1.49863 C 48 GLY
151 C151 7.49114 2.99366 -0.0062041 C 48 GLY
152 C152 7.49099 3.14421 1.48622 C 48 GLY
153 C153 -4.00871 2.83959 -1.49945 C 48 GLY
154 C154 -4.00886 2.99014 -0.00702371 C 48 GLY
155 C155 -4.00901 3.14069 1.4854 C 48 GLY
156 H156 -5 3 0 H 49 GLY
157 H157 8.5 3 0 H 50 GLY
158 C158 3.00099 -0.162235 -1.48778 C 51 GLY
159 C159 2.99983 0.00269732 0.00312286 C 51 GLY
160 C160 2.99868 0.16763 1.49403 C 51 GLY
161 C161 -6.49901 -0.172226 -1.49403 C 51 GLY
162 C162 -6.50016 -0.00729374 -0.00312472 C 51 GLY
163 C163 -6.50131 0.157639 1.48778 C 51 GLY
164 C164 -7.49901 -0.173278 -1.49469 C 51 GLY
165 C165 -7.50016 -0.00834543 -0.00378236 C 51 GLY
166 C166 -7.50131 0.156587 1.48712 C 51 GLY
167 H167 4 0 0 H 52 GLY
168 H168 -8.5 0 0 H 53 GLY
169 C169 4.0034 9.00366 -0.00577807 C 54 GLY
170 C170 4.00494 9.09705 0.738383 C 54 GLY
171 C171 4.00648 9.19044 1.48254 C 54 GLY
172 C172 3.00341 9.00584 -0.00398095 C 54 GLY
173 C173 3.00649 9.19262 1.48434 C 54 GLY
174 C174 6.5095 8.99791 -0.00257741 C 55 GLY
175 C175 6.51978 9.06485 0.744358 C 55 GLY
176 C176 6.53007 9.1318 1.49129 C 55 GLY
177 C177 7.50924 9.0148 -0.0178622 C 55 GLY
178 C178 7.52981 9.1487 1.47601 C 55 GLY
179 C179 5.25889 10.3175 2.51817 C 56 GLY
180 C180 5.25948 10.2104 1.77585 C 56 GLY
181 C181 5.26007 10.1033 1.03353 C 56 GLY
182 C182 4.64785 10.5371 0.970481 C 56 GLY
183 C183 5.94232 10.4186 0.988595 C 56 GLY
184 C184 4.04467 10.96 0.908989 C 56 GLY
185 C185 6.61369 10.725 0.944938 C 56 GLY
186 C186 5.2577 10.5317 4.0028 C 56 GLY
187 H187 4.88788 9.34006 1.29177 H 57 GLY
188 H188 5.69004 9.38895 1.35221 H 58 GLY
189 H189 6.25957 10.3019 2.50003 H 59 GLY
190 C190 5.259 13.1077 1.01498 C 60 GLY
191 C191 5.24885 13.3183 2.50008 C 60 GLY
192 C192 5.2387 13.529 3.98518 C 60 GLY
193 O193 3.24463 12.287 -1.10484 O 61 GLY
194 O194 3.22568 12.2791 -2.10463 O 61 GLY
195 O195 7.24828 12.3045 -1.10586 O 62 GLY
196 O196 7.27013 12.2913 -2.10554 O 62 GLY
197 O197 3.26708 13.0211 -2.04574 O 63 GLY
198 O198 4.26707 13.026 -2.04746 O 63 GLY
199 O199 5.26706 13.031 -2.04918 O 63 GLY
200 O200 6.26704 13.0359 -2.0509 O 63 GLY
201 O201 7.26703 13.0409 -2.05263 O 63 GLY
202 O202 3.26468 13.5196 -2.00788 O 63 GLY
203 O203 4.26467 13.5246 -2.0096 O 63 GLY
204 O204 5.26465 13.5295 -2.01132 O 63 GLY
205 O205 6.26464 13.5345 -2.01304 O 63 GLY
206 O206 7.26463 13.5394 -2.01477 O 63 GLY
207 O207 3.26693 13.2325 -1.52825 O 63 GLY
208 O208 4.26691 13.2374 -1.52997 O 63 GLY
209 O209 5.2669 13.2424 -1.53169 O 63 GLY
210 O210 6.26689 13.2473 -1.53341 O 63 GLY
211 O211 7.26687 13.2523 -1.53513 O 63 GLY
212 O212 5.25572 12.2699 2.50449 O 64 GLY
213 H213 2 9 0 H 65 GLY
214 H214 8.5 9 0 H 66 GLY
215 H215 3.25 11.3 -1.1 H 67 GLY
216 H216 7.25 11.3 -1.1 H 68 GLY
217 H217 6.25 13.3 2.5 H 69 GLY
218 C218 -6.49803 8.99339 0.00216175 C 70 GLY
219 C219 -6.49495 8.90996 0.747501 C 70 GLY
220 C220 -6.49188 8.82654 1.49284 C 70 GLY
221 C221 -7.50417 9.16017 -1.4844 C 70 GLY
222 C222 -7.49802 8.99332 0.00628226 C 70 GLY
223 C223 -7.49187 8.82647 1.49696 C 70 GLY
224 C224 -6.50418 9.16023 -1.48851 C 70 GLY
225 C225 -3.99858 8.99979 0.0109405 C 71 GLY
226 C226 -3.99089 8.92079 0.756728 C 71 GLY
227 C227 -3.9832 8.84179 1.50252 C 71 GLY
228 C228 -3.01401 9.16337 -1.49035 C 71 GLY
229 C229 -2.99864 9.00537 0.00122633 C 71 GLY
230 C230 -2.98327 8.84738 1.49281 C 71 GLY
231 C231 -4.01395 9.15778 -1.48063 C 71 GLY
232 C232 -5.25667 10.3002 2.49552 C 72 GLY
233 C233 -5.25676 10.0732 1.7807 C 72 GLY
234 C234 -5.25686 9.84618 1.06587 C 72 GLY
235 C235 -5.91211 10.1997 0.953701 C 72 GLY
236 C236 -4.61223 10.217 0.948044 C 72 GLY
237 C237 -6.55722 10.5438 0.844515 C 72 GLY
238 C238 -3.97747 10.5781 0.833288 C 72 GLY
239 C239 -5.25648 10.7541 3.92517 C 72 GLY
240 H240 -5.64853 9.12893 1.45818 H 73 GLY
241 H241 -4.84895 9.13613 1.4152 H 74 GLY
242 H242 -4.25377 10.2939 2.50167 H 75 GLY
243 C243 -5.25561 12.8561 1.06432 C 76 GLY
244 C244 -5.24485 13.3091 2.49424 C 76 GLY
245 C245 -5.2341 13.7621 3.92416 C 76 GLY
246 O246 -7.25264 12.2998 -1.09766 O 77 GLY
247 O247 -7.25048 12.2917 -2.09762 O 77 GLY
248 O248 -3.2459 12.2898 -1.09797 O 78 GLY
249 O249 -3.28275 12.277 -2.09721 O 78 GLY
250 O250 -7.23315 13.0342 -2.0618 O 79 GLY
251 O251 -6.23321 13.0313 -2.05186 O 79 GLY
252 O252 -5.23326 13.0284 -2.04192 O 79 GLY
253 O253 -4.23331 13.0255 -2.03198 O 79 GLY
254 O254 -3.23337 13.0225 -2.02203 O 79 GLY
255 O255 -7.23228 13.5309 -2.00389 O 79 GLY
256 O256 -6.23233 13.528 -1.99395 O 79 GLY
257 O257 -5.23238 13.525 -1.98401 O 79 GLY
258 O258 -4.23244 13.5221 -1.97407 O 79 GLY
259 O259 -3.23249 13.5192 -1.96413 O 79 GLY
260 O260 -7.23782 13.2247 -1.53623 O 79 GLY
261 O261 -6.23787 13.2217 -1.52629 O 79 GLY
262 O262 -5.23793 13.2188 -1.51635 O 79 GLY
263 O263 -4.23798 13.2159 -1.50641 O 79 GLY
264 O264 -3.23803 13.213 -1.49647 O 79 GLY
265 O265 -5.23376 12.2741 2.5032 O 80 GLY
266 H266 -8.5 9 0 H 81 GLY
267 H267 -2 9 0 H 82 GLY
268 H268 -7.25 11.3 -1.1 H 83 GLY
269 H269 -3.25 11.3 -1.1 H 84 GLY
270 H270 -4.25 13.3 2.5 H 85 GLY
271 O271 6.13637 17.6349 3.92366 O 86 GLY
272 O272 7.33305 17.5808 4.82645 O 86 GLY
273 C273 5.24341 19.1517 1.00598 C 87 GLY
274 C274 5.2483 18.9933 2.49759 C 87 GLY
275 C275 5.25319 18.8349 3.98919 C 87 GLY
276 C276 5.27102 15.7625 1.02695 C 88 GLY
277 C277 5.25499 16.001 2.50778 C 88 GLY
278 C278 5.23895 16.2396 3.9886 C 88 GLY
279 O279 7.28492 18.5858 4.77606 O 89 GLY
280 O280 8.08797 18.5685 4.1804 O 89 GLY
281 O281 8.89102 18.5512 3.58474 O 89 GLY
282 O282 9.69407 18.5338 2.98908 O 89 GLY
283 O283 10.4971 18.5165 2.39342 O 89 GLY
284 C284 11.5552 17.4966 2.50435 C 90 GLY
285 C285 10.5558 17.5181 2.47754 C 90 GLY
286 C286 6.1053 17.6287 1.70339 C 91 GLY
287 C287 5.13318 17.4651 2.83398 C 91 GLY
288 C288 4.16106 17.3015 3.96456 C 91 GLY
289 O289 4.75245 17.5029 2.51208 O 91 GLY
290 C290 8.25231 17.4942 1.32971 C 92 GLY
291 C291 8.24065 18.4939 1.35349 C 92 GLY
292 H292 11.55 16.5 2.5 H 93 GLY
293 O293 -7.33183 17.9375 4.80006 O 94 GLY
294 O294 -6.29947 17.9311 3.71186 O 94 GLY
295 C295 -5.22999 19.1959 1.01782 C 95 GLY
296 C296 -5.25598 19.0127 2.50637 C 95 GLY
297 C297 -5.28197 18.8296 3.99492 C 95 GLY
298 C298 -5.24668 15.5377 1.0793 C 96 GLY
299 C299 -5.24994 15.9963 2.50748 C 96 GLY
300 C300 -5.25319 16.4548 3.93567 C 96 GLY
301 O301 -10.7039 18.5013 2.48614 O 97 GLY
302 O302 -9.89179 18.6059 3.06018 O 97 GLY
303 O303 -9.07966 18.7104 3.63421 O 97 GLY
304 O304 -8.26753 18.815 4.20824 O 97 GLY
305 O305 -7.4554 18.9195 4.78227 O 97 GLY
306 C306 -10.5422 17.5084 2.54577 C 98 GLY
307 C307 -11.5406 17.4992 2.48913 C 98 GLY
308 C308 -6.14328 17.4357 1.70733 C 99 GLY
309 C309 -5.14506 17.5418 2.82191 C 99 GLY
310 C310 -4.14683 17.648 3.93648 C 99 GLY
311 O311 -4.77195 17.4989 2.49184 O 99 GLY
312 C312 -8.23885 17.4929 1.336 C 100 GLY
313 C313 -8.25057 18.4928 1.34722 C 100 GLY
314 H314 -11.55 16.5 2.5 H 101 GLY
315 C315 -1.25813 22.0113 2.50112 C 102 GLY
316 C316 -1.26231 21.9409 3.2478 C 102 GLY
317 C317 -1.2665 21.8706 3.99448 C 102 GLY
318 C318 -5.25788 21.9752 2.47531 C 102 GLY
319 C319 -5.26625 21.8345 3.96867 C 102 GLY
320 C320 1.24273 22.0059 2.49288 C 103 GLY
321 C321 1.24442 21.9152 3.23738 C 103 GLY
322 C322 1.24611 21.8246 3.98188 C 103 GLY
323 C323 5.24271 22.0142 2.4848 C 103 GLY
324 C324 5.24609 21.8328 3.9738 C 103 GLY
325 C325 0.00412227 23.3004 4.99658 C 104 GLY
326 C326 0.0086882 23.134 4.26529 C 104 GLY
327 C327 0.0132542 22.9675 3.53401 C 104 GLY
328 C328 -0.587865 23.4088 3.42983 C 104 GLY
329 C329 0.703202 23.2624 3.47121 C 104 GLY
330 C330 -1.18022 23.8392 3.32816 C 104 GLY
331 C331 1.38205 23.5486 3.41029 C 104 GLY
332 C332 -0.00500965 23.6333 6.45915 C 104 GLY
333 H333 -0.477581 22.2881 3.88559 H 105 GLY
334 H334 0.48256 22.2452 3.77626 H 106 GLY
335 H335 1.00625 23.3111 5.00221 H 107 GLY
336 C336 -0.00892649 26.0041 3.52716 C 108 GLY
337 C337 0.000446057 26.3185 4.99383 C 108 GLY
338 C338 0.0098186 26.6328 6.46049 C 108 GLY
339 O339 -2.00482 25.3059 1.4056 O 109 GLY
340 O340 -2.09215 25.3276 0.40966 O 109 GLY
341 O341 2.00756 25.3009 1.40176 O 110 GLY
342 O342 1.9883 25.3013 0.401947 O 110 GLY
343 O343 -2.03996 26.0817 0.45423 O 111 GLY
344 O344 -1.04003 26.0707 0.457675 O 111 GLY
345 O345 -0.040096 26.0597 0.461121 O 111 GLY
346 O346 0.959838 26.0487 0.464566 O 111 GLY
347 O347 1.95977 26.0377 0.468012 O 111 GLY
348 O348 -2.03469 26.5788 0.507658 O 111 GLY
349 O349 -1.03475 26.5678 0.511104 O 111 GLY
350 O350 -0.0348205 26.5568 0.514549 O 111 GLY
351 O351 0.965114 26.5458 0.517994 O 111 GLY
352 O352 1.96505 26.5349 0.52144 O 111 GLY
353 O353 -2.03963 26.2768 0.978079 O 111 GLY
354 O354 -1.03969 26.2658 0.981524 O 111 GLY
355 O355 -0.0397578 26.2549 0.984969 O 111 GLY
356 O356 0.960177 26.2439 0.988415 O 111 GLY
357 O357 1.96011 26.2329 0.99186 O 111 GLY
358 O358 -0.0138387 25.2792 4.99635 O 112 GLY
359 H359 -6.25 22 2.5 H 113 GLY
360 H360 6.25 22 2.5 H 114 GLY
361 H361 -2 24.3 1.4 H 115 GLY
362 H362 2 24.3 1.4 H 116 GLY
363 H363 1 26.3 5 H 117 GLY
364 C364 5.27074 26.134 4.00506 C 118 GLY
365 C365 5.25883 26.2893 5.49695 C 118 GLY
366 C366 5.24693 26.4447 6.98883 C 118 GLY
367 H367 4.25 26.3 5.5 H 119 GLY
368 H368 6.25 26.3 5.5 H 120 GLY
369 C369 -0.0271864 29.6308 6.5483 C 121 GLY
370 C370 -0.000578698 29.2893 8.00865 C 121 GLY
371 C371 0.026029 28.9477 9.46901 C 121 GLY
372 H372 -1 29.3 8 H 122 GLY
373 H373 1 29.3 8 H 123 GLY
374 H374 3.00092 -2.99834 -0.0133836 H 0 GLY
375 H375 2 -3 0 H 4 GLY
376 H376 6.0008 -2.99945 0.01341 H 0 GLY
377 H377 7 -3 0 H 5 GLY
378 H378 2.53097 -3.99618 -4.59115 H 1 GLY
379 H379 2.46617 -3.24443 -4.5962 H 3 GLY
380 H380 6.48009 -4.0097 -4.60707 H 2 GLY
381 H381 6.4653 -3.25875 -4.67838 H 3 GLY
382 H382 2.5 -5 -3.6 H 6 GLY
383 H383 2.48763 -3.99523 -3.59209 H 1 GLY
384 H384 6.5 -5 -3.6 H 7 GLY
385 H385 6.5062 -3.99362 -3.60754 H 2 GLY
386 H386 5.34121 -13.675 1.93126 H 8 GLY
387 H387 5.42341 -12.6792 2.02221 H 11 GLY
388 H388 9.30176 -13.02 1.10448 H 11 GLY
389 H389 9.27196 -14.0086 1.0078 H 12 GLY
390 H390 4.03846 -13.5996 1.19157 H 8 GLY
391 H391 2.89086 -13.9099 0.286699 H 13 GLY
392 H392 9.3 -15 0 H 15 GLY
393 H393 9.31041 -13.9891 0.00872805 H 12 GLY
394 H394 2.5 -12.5 0 H 15 GLY
395 H395 2.99977 -12.5005 -0.0125795 H 9 GLY
396 H396 2.5 -15.5 0 H 15 GLY
397 H397 2.99651 -15.51 -0.00569614 H 10 GLY
398 H398 2.48582 -14.0168 0.0137516 H 13 GLY
399 H399 3.5 -15.5 0 H 15 GLY
400 H400 6 -15 -1.15 H 15 GLY
401 H401 3.5 -12.5 0 H 15 GLY
402 H402 6 -12 -1.15 H 15 GLY
403 H403 5.99859 -13.9986 -1.14954 H 14 GLY
404 H404 6.0045 -12.9987 -1.15746 H 14 GLY
405 H405 8.74397 -6.59544 1.10399 H 16 GLY
406 H406 8.81964 -5.61595 1.20686 H 19 GLY
407 H407 12.1622 -5.98416 -0.959182 H 19 GLY
408 H408 12.1155 -6.97903 -0.966218 H 20 GLY
409 H409 7.30107 -6.66864 0.700634 H 16 GLY
410 H410 5.93802 -7.04766 0.237727 H 21 GLY
411 H411 12.3 -8 0 H 23 GLY
412 H412 12.304 -6.99282 0.0157608 H 20 GLY
413 H413 5.5 -5.5 0 H 23 GLY
414 H414 6.00189 -5.4937 -0.00212756 H 17 GLY
415 H415 5.5 -8.5 0 H 23 GLY
416 H416 5.99514 -8.51011 -0.0213072 H 18 GLY
417 H417 5.49805 -7.00324 0.00437557 H 21 GLY
418 H418 6.5 -8.5 0 H 23 GLY
419 H419 9 -8 -1.15 H 23 GLY
420 H420 6.5 -5.5 0 H 23 GLY
421 H421 9 -5 -1.15 H 23 GLY
422 H422 8.99429 -7.00123 -1.15457 H 22 GLY
423 H423 8.99412 -6.00124 -1.15237 H 22 GLY
424 H424 5.98755 -2.83135 1.5039 H 0 GLY
425 H425 5.96815 -5.33227 1.48878 H 17 GLY
426 H426 2.98767 -2.83024 1.47711 H 0 GLY
427 H427 3.00949 -12.3329 1.47799 H 9 GLY
428 H428 -5.99813 -3.01386 -0.00391773 H 24 GLY
429 H429 -7 -3 0 H 28 GLY
430 H430 -2.99816 -3.00426 0.00477287 H 24 GLY
431 H431 -2 -3 0 H 29 GLY
432 H432 -6.41924 -3.98302 -4.59726 H 25 GLY
433 H433 -6.47739 -3.24694 -4.60693 H 27 GLY
434 H434 -2.46017 -4.00096 -4.60527 H 26 GLY
435 H435 -2.47745 -3.25971 -4.58911 H 27 GLY
436 H436 -6.5 -5 -3.6 H 30 GLY
437 H437 -6.50592 -3.99615 -3.60111 H 25 GLY
438 H438 -2.5 -5 -3.6 H 31 GLY
439 H439 -2.49213 -4.00221 -3.60578 H 26 GLY
440 H440 -5.7135 -13.8117 1.28477 H 32 GLY
441 H441 -5.68264 -12.8115 1.27695 H 35 GLY
442 H442 -8.97727 -13.0138 -0.982348 H 35 GLY
443 H443 -9.06724 -14.0052 -0.97089 H 36 GLY
444 H444 -4.25517 -13.8779 0.939941 H 32 GLY
445 H445 -2.94326 -13.9989 0.244658 H 37 GLY
446 H446 -9.3 -15 0 H 39 GLY
447 H447 -9.30487 -14.0002 0.000451493 H 36 GLY
448 H448 -2.5 -12.5 0 H 39 GLY
449 H449 -3.00075 -12.4919 0.00654116 H 33 GLY
450 H450 -2.5 -15.5 0 H 39 GLY
451 H451 -2.99453 -15.5159 -0.00096892 H 34 GLY
452 H452 -2.50823 -13.9954 -0.00177994 H 37 GLY
453 H453 -3.5 -15.5 0 H 39 GLY
454 H454 -6 -15 -1.15 H 39 GLY
455 H455 -3.5 -12.5 0 H 39 GLY
456 H456 -6 -12 -1.15 H 39 GLY
457 H457 -6.00242 -14.0021 -1.16429 H 38 GLY
458 H458 -5.9958 -13.0022 -1.15468 H 38 GLY
459 H459 -8.30253 -7.19544 2.01855 H 40 GLY
460 H460 -8.26144 -6.19938 1.91105 H 43 GLY
461 H461 -12.1556 -5.99024 1.0212 H 43 GLY
462 H462 -12.2298 -6.99433 0.991736 H 44 GLY
463 H463 -6.93859 -7.15319 1.39574 H 40 GLY
464 H464 -5.85313 -6.94771 0.368254 H 45 GLY
465 H465 -12.3 -8 0 H 47 GLY
466 H466 -12.3009 -6.99908 -0.00572072 H 44 GLY
467 H467 -5.5 -5.5 0 H 47 GLY
468 H468 -5.99962 -5.49594 -0.0209294 H 41 GLY
469 H469 -5.5 -8.5 0 H 47 GLY
470 H470 -5.99704 -8.50439 -0.00145605 H 42 GLY
471 H471 -5.51405 -6.9979 0.0042408 H 45 GLY
472 H472 -6.5 -8.5 0 H 47 GLY
473 H473 -9 -8 -1.15 H 47 GLY
474 H474 -6.5 -5.5 0 H 47 GLY
475 H475 -9 -5 -1.15 H 47 GLY
476 H476 -9.01098 -7.00166 -1.14508 H 46 GLY
477 H477 -9.00892 -6.00167 -1.14833 H 46 GLY
478 H478 -6.00292 -2.86697 1.48886 H 24 GLY
479 H479 -5.97836 -5.35636 1.47241 H 41 GLY
480 H480 -3.00295 -2.85737 1.49756 H 24 GLY
481 H481 -3.01334 -12.3634 1.50098 H 33 GLY
482 H482 7.49114 2.99366 -0.0062041 H 48 GLY
483 H483 8.5 3 0 H 50 GLY
484 H484 -4.00886 2.99014 -0.00702371 H 48 GLY
485 H485 -5 3 0 H 49 GLY
486 H486 2.99983 0.00269732 0.00312286 H 51 GLY
487 H487 4 0 0 H 52 GLY
488 H488 -7.50016 -0.00834543 -0.00378236 H 51 GLY
489 H489 -8.5 0 0 H 53 GLY
490 H490 4.0034 9.00366 -0.00577807 H 54 GLY
491 H491 6.5095 8.99791 -0.00257741 H 55 GLY
492 H492 4.00648 9.19044 1.48254 H 54 GLY
493 H493 4.88788 9.34006 1.29177 H 57 GLY
494 H494 6.53007 9.1318 1.49129 H 55 GLY
495 H495 5.69004 9.38895 1.35221 H 58 GLY
496 H496 5.26007 10.1033 1.03353 H 56 GLY
497 H497 5.25889 10.3175 2.51817 H 56 GLY
498 H498 6.25957 10.3019 2.50003 H 59 GLY
499 H499 5.2577 10.5317 4.0028 H 56 GLY
500 H500 5.2387 13.529 3.98518 H 60 GLY
501 H501 3.22568 12.2791 -2.10463 H 61 GLY
502 H502 3.26708 13.0211 -2.04574 H 63 GLY
503 H503 7.27013 12.2913 -2.10554 H 62 GLY
504 H504 7.26703 13.0409 -2.05263 H 63 GLY
505 H505 5.24885 13.3183 2.50008 H 60 GLY
506 H506 5.25572 12.2699 2.50449 H 64 GLY
507 H507 2 9 0 H 65 GLY
508 H508 3.00341 9.00584 -0.00398095 H 54 GLY
509 H509 8.5 9 0 H 66 GLY
510 H510 7.50924 9.0148 -0.0178622 H 55 GLY
511 H511 3.25 11.3 -1.1 H 67 GLY
512 H512 3.24463 12.287 -1.10484 H 61 GLY
513 H513 7.25 11.3 -1.1 H 68 GLY
514 H514 7.24828 12.3045 -1.10586 H 62 GLY
515 H515 6.25 13.3 2.5 H 69 GLY
516 H516 -6.49803 8.99339 0.00216175 H 70 GLY
517 H517 -3.99858 8.99979 0.0109405 H 71 GLY
518 H518 -6.49188 8.82654 1.49284 H 70 GLY
519 H519 -5.64853 9.12893 1.45818 H 73 GLY
520 H520 -3.9832 8.84179 1.50252 H 71 GLY
521 H521 -4.84895 9.13613 1.4152 H 74 GLY
522 H522 -5.25686 9.84618 1.06587 H 72 GLY
523 H523 -5.25667 10.3002 2.49552 H 72 GLY
524 H524 -4.25377 10.2939 2.50167 H 75 GLY
525 H525 -5.25648 10.7541 3.92517 H 72 GLY
526 H526 -5.2341 13.7621 3.92416 H 76 GLY
527 H527 -7.25048 12.2917 -2.09762 H 77 GLY
528 H528 -7.23315 13.0342 -2.0618 H 79 GLY
529 H529 -3.28275 12.277 -2.09721 H 78 GLY
530 H530 -3.23337 13.0225 -2.02203 H 79 GLY
531 H531 -5.24485 13.3091 2.49424 H 76 GLY
532 H532 -5.23376 12.2741 2.5032 H 80 GLY
533 H533 -8.5 9 0 H 81 GLY
534 H534 -7.49802 8.99332 0.00628226 H 70 GLY
535 H535 -2 9 0 H 82 GLY
536 H536 -2.99864 9.00537 0.00122633 H 71 GLY
537 H537 -7.25 11.3 -1.1 H 83 GLY
538 H538 -7.25264 12.2998 -1.09766 H 77 GLY
539 H539 -3.25 11.3 -1.1 H 84 GLY
540 H540 -3.2459 12.2898 -1.09797 H 78 GLY
541 H541 -4.25 13.3 2.5 H 85 GLY
542 H542 7.33305 17.5808 4.82645 H 86 GLY
543 H543 7.28492 18.5858 4.77606 H 89 GLY
544 H544 10.4971 18.5165 2.39342 H 89 GLY
545 H545 10.5558 17.5181 2.47754 H 90 GLY
546 H546 6.13637 17.6349 3.92366 H 86 GLY
547 H547 5.13318 17.4651 2.83398 H 91 GLY
548 H548 11.55 16.5 2.5 H 93 GLY
549 H549 11.5552 17.4966 2.50435 H 90 GLY
550 H550 4.75 19 2.5 H 93 GLY
551 H551 5.2483 18.9933 2.49759 H 87 GLY
552 H552 4.75 16 2.5 H 93 GLY
553 H553 5.25499 16.001 2.50778 H 88 GLY
554 H554 4.75245 17.5029 2.51208 H 91 GLY
555 H555 5.75 16 2.5 H 93 GLY
556 H556 8.25 16.5 1.35 H 93 GLY
557 H557 5.75 19 2.5 H 93 GLY
558 H558 8.25 19.5 1.35 H 93 GLY
559 H559 8.25231 17.4942 1.32971 H 92 GLY
560 H560 8.24065 18.4939 1.35349 H 92 GLY
561 H561 -7.33183 17.9375 4.80006 H 94 GLY
562 H562 -7.4554 18.9195 4.78227 H 97 GLY
563 H563 -10.7039 18.5013 2.48614 H 97 GLY
564 H564 -10.5422 17.5084 2.54577 H 98 GLY
565 H565 -6.29947 17.9311 3.71186 H 94 GLY
566 H566 -5.14506 17.5418 2.82191 H 99 GLY
567 H567 -11.55 16.5 2.5 H 101 GLY
568 H568 -11.5406 17.4992 2.48913 H 98 GLY
569 H569 -4.75 19 2.5 H 101 GLY
570 H570 -5.25598 19.0127 2.50637 H 95 GLY
571 H571 -4.75 16 2.5 H 101 GLY
572 H572 -5.24994 15.9963 2.50748 H 96 GLY
573 H573 -4.77195 17.4989 2.49184 H 99 GLY
574 H574 -5.75 16 2.5 H 101 GLY
575 H575 -8.25 16.5 1.35 H 101 GLY
576 H576 -5.75 19 2.5 H 101 GLY
577 H577 -8.25 19.5 1.35 H 101 GLY
578 H578 -8.23885 17.4929 1.336 H 100 GLY
579 H579 -8.25057 18.4928 1.34722 H 100 GLY
580 H580 -1.25813 22.0113 2.50112 H 102 GLY
581 H581 1.24273 22.0059 2.49288 H 103 GLY
582 H582 -1.2665 21.8706 3.99448 H 102 GLY
583 H583 -0.477581 22.2881 3.88559 H 105 GLY
584 H584 1.24611 21.8246 3.98188 H 103 GLY
585 H585 0.48256 22.2452 3.77626 H 106 GLY
586 H586 0.0132542 22.9675 3.53401 H 104 GLY
587 H587 0.00412227 23.3004 4.99658 H 104 GLY
588 H588 1.00625 23.3111 5.00221 H 107 GLY
589 H589 -0.00500965 23.6333 6.45915 H 104 GLY
590 H590 0.0098186 26.6328 6.46049 H 108 GLY
591 H591 -2.09215 25.3276 0.40966 H 109 GLY
592 H592 -2.03996 26.0817 0.45423 H 111 GLY
593 H593 1.9883 25.3013 0.401947 H 110 GLY
594 H594 1.95977 26.0377 0.468012 H 111 GLY
595 H595 0.000446057 26.3185 4.99383 H 108 GLY
596 H596 -0.0138387 25.2792 4.99635 H 112 GLY
597 H597 -6.25 22 2.5 H 113 GLY
598 H598 -5.25788 21.9752 2.47531 H 102 GLY
599 H599 6.25 22 2.5 H 114 GLY
600 H600 5.24271 22.0142 2.4848 H 103 GLY
601 H601 -2 24.3 1.4 H 115 GLY
602 H602 -2.00482 25.3059 1.4056 H 109 GLY
603 H603 2 24.3 1.4 H 116 GLY
604 H604 2.00756 25.3009 1.40176 H 110 GLY
605 H605 1 26.3 5 H 117 GLY
606 H606 5.25883 26.2893 5.49695 H 118 GLY
607 H607 4.25 26.3 5.5 H 119 GLY
608 H608 6.25 26.3 5.5 H 120 GLY
609 H609 -0.000578698 29.2893 8.00865 H 121 GLY
610 H610 -1 29.3 8 H 122 GLY
611 H611 1 29.3 8 H 123 GLY
612 H612 -3.00901 3.141 1.48547 H 48 GLY
613 H613 2.99868 0.16763 1.49403 H 51 GLY
614 H614 7.49099 3.14421 1.48622 H 48 GLY
615 H615 7.52981 9.1487 1.47601 H 55 GLY
616 H616 -4.00871 2.83959 -1.49945 H 48 GLY
617 H617 -3.01401 9.16337 -1.49035 H 71 GLY
618 H618 -7.50131 0.156587 1.48712 H 51 GLY
619 H619 -7.50417 9.16017 -1.4844 H 70 GLY
620 H620 -6.49901 -0.172226 -1.49403 H 51 GLY
621 H621 3.00649 9.19262 1.48434 H 54 GLY
622 H622 5.23895 16.2396 3.9886 H 88 GLY
623 H623 -5.25319 16.4548 3.93567 H 96 GLY
624 H624 5.24609 21.8328 3.9738 H 103 GLY
625 H625 5.25319 18.8349 3.98919 H 87 GLY
626 H626 -5.26625 21.8345 3.96867 H 102 GLY
627 H627 -5.28197 18.8296 3.99492 H 95 GLY
628 H628 5.27074 26.134 4.00506 H 118 GLY
629 H629 -0.0271864 29.6308 6.5483 H 121 GLY
@<TRIPOS>BOND
1 374 375 1
2 376 377 1
3 378 379 1
4 380 381 1
5 382 383 1
6 384 385 1
7 386 387 1
8 388 389 1
9 390 391 1
10 392 393 1
11 394 395 1
12 394 398 1
13 394 398 1
14 396 397 1
15 396 398 1
16 396 398 1
17 399 400 1
18 400 403 1
19 401 402 1
20 402 404 1
21 405 406 1
22 407 408 1
23 409 410 1
24 411 412 1
25 413 414 1
26 413 417 1
27 413 417 1
28 415 416 1
29 415 417 1
30 415 417 1
31 418 419 1
32 419 422 1
33 420 421 1
34 421 423 1
35 428 429 1
36 430 431 1
37 432 433 1
38 434 435 1
39 436 437 1
40 438 439 1
41 440 441 1
42 442 443 1
43 444 445 1
44 446 447 1
45 448 449 1
46 448 452 1
47 448 452 1
48 450 451 1
49 450 452 1
50 450 452 1
51 453 454 1
52 454 457 1
53 455 456 1
54 456 458 1
55 459 460 1
56 461 462 1
57 463 464 1
58 465 466 1
59 467 468 1
60 467 471 1
61 467 471 1
62 469 470 1
63 469 471 1
64 469 471 1
65 472 473 1
66 473 476 1
67 474 475 1
68 475 477 1
69 478 479 1
70 480 481 1
71 482 483 1
72 484 485 1
73 486 487 1
74 488 489 1
75 490 491 1
76 497 498 1
77 501 502 1
78 503 504 1
79 505 515 1
80 507 508 1
81 509 510 1
82 511 512 1
83 513 514 1
84 516 517 1
85 523 524 1
86 527 528 1
87 529 530 1
88 531 541 1
89 533 534 1
90 535 536 1
91 537 538 1
92 539 540 1
93 542 543 1
94 544 545 1
95 546 547 1
96 548 549 1
97 550 551 1
98 550 554 1
99 550 554 1
100 552 553 1
101 552 554 1
102 552 554 1
103 555 556 1
104 556 559 1
105 557 558 1
106 558 560 1
107 561 562 1
108 563 564 1
109 565 566 1
110 567 568 1
111 569 570 1
112 569 573 1
113 569 573 1
114 571 572 1
115 571 573 1
116 571 573 1
117 574 575 1
118 575 578 1
119 576 577 1
120 577 579 1
121 580 581 1
122 587 588 1
123 591 592 1
124 593 594 1
125 595 605 1
126 597 598 1
127 599 600 1
128 601 602 1
129 603 604 1
130 606 607 1
131 606 608 1
132 609 610 1
133 609 611 1
