#
#
#

#
#

@<TRIPOS>MOLECULE
Panda
720 301
SMALL
NO CHARGES


@<TRIPOS>ATOM
1 C1 3.0067 -3.31434 -1.46531 C 0 ASP
2 C2 2.99717 -2.99184 -0.000424021 C 0 ASP
3 C3 2.98763 -2.66934 1.46447 C 0 ASP
4 C4 6.00664 -3.31392 -1.44588 C 0 ASP
5 C5 5.9971 -2.99142 0.0190094 C 0 ASP
6 C6 5.98757 -2.66892 1.4839 C 0 ASP
7 O7 2.48862 -3.99838 -3.58967 O 1 ALA
8 O8 2.49972 -3.98558 -4.58952 O 1 ALA
9 O9 6.49606 -4.0092 -3.61937 O 2 ALA
10 O10 6.48708 -4.04747 -4.61859 O 2 ALA
11 O11 2.48172 -3.22819 -4.64902 O 3 ALA
12 O12 3.48149 -3.24768 -4.64069 O 3 ALA
13 O13 4.48127 -3.26717 -4.63236 O 3 ALA
14 O14 5.48104 -3.28666 -4.62404 O 3 ALA
15 O15 6.48082 -3.30616 -4.61571 O 3 ALA
16 O16 2.49161 -2.72861 -4.66699 O 3 ALA
17 O17 3.49138 -2.7481 -4.65867 O 3 ALA
18 O18 4.49116 -2.76759 -4.65034 O 3 ALA
19 O19 5.49093 -2.78709 -4.64201 O 3 ALA
20 O20 6.49071 -2.80658 -4.63368 O 3 ALA
21 O21 2.48285 -2.96035 -4.15835 O 3 ALA
22 O22 3.48263 -2.97984 -4.15002 O 3 ALA
23 O23 4.4824 -2.99933 -4.14169 O 3 ALA
24 O24 5.48218 -3.01882 -4.13336 O 3 ALA
25 O25 6.48195 -3.03831 -4.12504 O 3 ALA
26 H26 2 -3 0 H 4 GLY
27 H27 7 -3 0 H 5 GLY
28 H28 2.5 -5 -3.6 H 6 GLY
29 H29 6.5 -5 -3.6 H 7 GLY
30 O30 4.15017 -13.9945 1.10791 O 8 ASP
31 O31 5.3622 -14.0172 1.99134 O 8 ASP
32 C32 3.04532 -12.8325 -1.4478 C 9 ASN
33 C33 3.00546 -12.5041 0.0152636 C 9 ASN
34 C34 2.96561 -12.1757 1.47832 C 9 ASN
35 C35 2.99174 -16.1361 -1.36589 C 10 ASP
36 C36 2.98987 -15.5085 -0.0035166 C 10 ASP
37 C37 2.988 -14.8808 1.35885 C 10 ASP
38 O38 5.47085 -13.012 1.93417 O 11 ARG
39 O39 6.44382 -13.0116 1.70323 O 11 ARG
40 O40 7.41679 -13.0111 1.47228 O 11 ARG
41 O41 8.38976 -13.0107 1.24134 O 11 ARG
42 O42 9.36272 -13.0103 1.0104 O 11 ARG
43 C43 9.28675 -13.9884 -0.00823384 C 12 ASN
44 C44 9.22142 -13.9887 0.98963 C 12 ASN
45 C45 3.69581 -14.4903 -0.905875 C 13 ARG
46 C46 2.92262 -13.952 0.261371 C 13 ARG
47 C47 2.14943 -13.4138 1.42862 C 13 ARG
48 O48 2.4987 -13.9929 -0.000586637 O 13 ARG
49 C49 6.00151 -13.9863 -1.16825 C 14 GLY
50 C50 6.00529 -12.9864 -1.15456 C 14 GLY
51 H51 9.3 -15 0 H 15 GLY
52 O52 7.36263 -6.7679 0.681659 O 16 ASP
53 O53 8.77965 -6.7906 1.17311 O 16 ASP
54 C54 6.0027 -5.85157 -1.47428 C 17 ASN
55 C55 6.00946 -5.50888 -0.0139655 C 17 ASN
56 C56 6.01621 -5.16618 1.44635 C 17 ASN
57 C57 6.0025 -9.14238 -1.354 C 18 ASP
58 C58 5.99597 -8.4897 -0.0034561 C 18 ASP
59 C59 5.98943 -7.83703 1.34709 C 18 ASP
60 O60 8.90219 -5.80026 1.03661 O 19 ARG
61 O61 9.76157 -5.84985 0.527673 O 19 ARG
62 O62 10.6209 -5.89944 0.0187319 O 19 ARG
63 O63 11.4803 -5.94902 -0.49021 O 19 ARG
64 O64 12.3397 -5.99861 -0.999151 O 19 ARG
65 C65 12.303 -7.00524 0.00659873 C 20 ASN
66 C66 12.2866 -7.00458 -0.993267 C 20 ASN
67 C67 6.59075 -7.43976 -1.05974 C 21 ARG
68 C68 5.94722 -6.98353 0.216087 C 21 ARG
69 C69 5.3037 -6.52729 1.49191 C 21 ARG
70 O70 5.49868 -7.00015 -0.00421399 O 21 ARG
71 C71 9.00631 -7.00924 -1.15221 C 22 GLY
72 C72 8.99826 -6.00928 -1.15006 C 22 GLY
73 H73 12.3 -8 0 H 23 GLY
74 C74 -6.01654 -3.20234 -1.47795 C 24 ASP
75 C75 -6.00821 -2.9914 0.00712048 C 24 ASP
76 C76 -5.99988 -2.78046 1.49219 C 24 ASP
77 C77 -3.01663 -3.22037 -1.49222 C 24 ASP
78 C78 -3.0083 -3.00943 -0.00715118 C 24 ASP
79 C79 -2.99997 -2.79848 1.47792 C 24 ASP
80 O80 -6.49606 -3.99253 -3.58004 O 25 ALA
81 O81 -6.48858 -3.97399 -4.57984 O 25 ALA
82 O82 -2.50572 -4.00039 -3.59406 O 26 ALA
83 O83 -2.42647 -3.99227 -4.59089 O 26 ALA
84 O84 -6.46729 -3.21161 -4.5663 O 27 ALA
85 O85 -5.46735 -3.22119 -4.5603 O 27 ALA
86 O86 -4.46741 -3.23078 -4.55429 O 27 ALA
87 O87 -3.46748 -3.24036 -4.54829 O 27 ALA
88 O88 -2.46754 -3.24994 -4.54229 O 27 ALA
89 O89 -6.46291 -2.71565 -4.50304 O 27 ALA
90 O90 -5.46298 -2.72523 -4.49704 O 27 ALA
91 O91 -4.46304 -2.73481 -4.49104 O 27 ALA
92 O92 -3.4631 -2.7444 -4.48504 O 27 ALA
93 O93 -2.46317 -2.75398 -4.47903 O 27 ALA
94 O94 -6.46868 -3.02685 -4.0387 O 27 ALA
95 O95 -5.46875 -3.03644 -4.03269 O 27 ALA
96 O96 -4.46881 -3.04602 -4.02669 O 27 ALA
97 O97 -3.46887 -3.0556 -4.02069 O 27 ALA
98 O98 -2.46894 -3.06518 -4.01469 O 27 ALA
99 H99 -7 -3 0 H 28 GLY
100 H100 -2 -3 0 H 29 GLY
101 H101 -6.5 -5 -3.6 H 30 GLY
102 H102 -2.5 -5 -3.6 H 31 GLY
103 O103 -5.76136 -13.7927 1.23977 O 32 ASP
104 O104 -4.3388 -13.8481 0.767276 O 32 ASP
105 C105 -3.00402 -12.6902 -1.49058 C 33 ASN
106 C106 -2.99445 -12.4959 -0.00323713 C 33 ASN
107 C107 -2.98489 -12.3017 1.4841 C 33 ASN
108 C108 -2.99276 -16.1769 -1.34644 C 34 ASP
109 C109 -2.99932 -15.511 -0.00234551 C 34 ASP
110 C110 -3.00587 -14.8452 1.34175 C 34 ASP
111 O111 -9.0951 -12.9872 -1.07314 O 35 ARG
112 O112 -8.2551 -12.941 -0.532524 O 35 ARG
113 O113 -7.4151 -12.8948 0.00809411 O 35 ARG
114 O114 -6.5751 -12.8486 0.548712 O 35 ARG
115 O115 -5.7351 -12.8024 1.08933 O 35 ARG
116 C116 -9.15211 -13.9801 -0.977206 C 36 ASN
117 C117 -9.28983 -14.0037 0.0129848 C 36 ASN
118 C118 -3.56678 -14.2227 -1.14688 C 37 ARG
119 C119 -2.95429 -13.8998 0.18376 C 37 ARG
120 C120 -2.3418 -13.577 1.5144 C 37 ARG
121 O121 -2.49953 -13.9891 -0.00390635 O 37 ARG
122 C122 -6.0067 -14.0048 -1.14246 C 38 GLY
123 C123 -5.99051 -13.0051 -1.15721 C 38 GLY
124 H124 -9.3 -15 0 H 39 GLY
125 O125 -8.18604 -7.23915 2.20261 O 40 ASP
126 O126 -6.91731 -7.142 1.40832 O 40 ASP
127 C127 -6.0044 -5.71817 -1.48849 C 41 ASN
128 C128 -5.99989 -5.5024 -0.00409222 C 41 ASN
129 C129 -5.99538 -5.28664 1.4803 C 41 ASN
130 C130 -5.97353 -7.56164 -1.15767 C 42 ASP
131 C131 -5.99933 -8.50505 0.00823261 C 42 ASP
132 C132 -6.02512 -9.44845 1.17413 C 42 ASP
133 O133 -12.0049 -6.0417 1.04362 O 43 ARG
134 O134 -11.0506 -6.09163 1.33829 O 43 ARG
135 O135 -10.0963 -6.14156 1.63297 O 43 ARG
136 O136 -9.14199 -6.19148 1.92764 O 43 ARG
137 O137 -8.1877 -6.24141 2.22231 O 43 ARG
138 C138 -12.1176 -7.01869 0.986014 C 44 ASN
139 C139 -12.2987 -7.00944 0.00259644 C 44 ASN
140 C140 -6.89863 -6.60611 -0.66419 C 45 ARG
141 C141 -5.88008 -7.06353 0.337463 C 45 ARG
142 C142 -4.86152 -7.52095 1.33912 C 45 ARG
143 O143 -5.51854 -7.00312 -0.00259215 O 45 ARG
144 C144 -9.00009 -7.00238 -1.15639 C 46 GLY
145 C145 -8.99288 -6.00242 -1.16082 C 46 GLY
146 H146 -12.3 -8 0 H 47 GLY
147 C147 -2.99574 2.78075 -1.48829 C 48 ASP
148 C148 -2.99636 2.99704 -0.00396299 C 48 ASP
149 C149 -2.99698 3.21332 1.48036 C 48 ASP
150 C150 7.50425 2.79031 -1.4853 C 48 ASP
151 C151 7.50363 3.0066 -0.000972607 C 48 ASP
152 C152 7.50301 3.22288 1.48335 C 48 ASP
153 C153 -3.99574 2.77984 -1.48857 C 48 ASP
154 C154 -3.99636 2.99613 -0.00424778 C 48 ASP
155 C155 -3.99698 3.21241 1.48008 C 48 ASP
156 H156 -5 3 0 H 49 GLY
157 H157 8.5 3 0 H 50 GLY
158 C158 2.99609 -0.316575 -1.46308 C 51 ASP
159 C159 2.995 -0.00273494 0.0037183 C 51 ASP
160 C160 2.99392 0.311105 1.47052 C 51 ASP
161 C161 -6.50391 -0.325553 -1.46818 C 51 ASP
162 C162 -6.50499 -0.0117129 -0.00138408 C 51 ASP
163 C163 -6.50608 0.302127 1.46542 C 51 ASP
164 C164 -7.50391 -0.326498 -1.46872 C 51 ASP
165 C165 -7.50499 -0.0126579 -0.00192117 C 51 ASP
166 C166 -7.50607 0.301182 1.46488 C 51 ASP
167 H167 4 0 0 H 52 GLY
168 H168 -8.5 0 0 H 53 GLY
169 C169 3.99417 8.98765 0.0029911 C 54 ALA
170 C170 3.99644 9.13301 0.738767 C 54 ALA
171 C171 3.99871 9.27836 1.47454 C 54 ALA
172 C172 2.99427 9.00182 0.00328014 C 54 ALA
173 C173 2.99881 9.29253 1.47483 C 54 ALA
174 C174 6.49941 9.00609 -0.00106795 C 55 ARG
175 C175 6.50988 9.12569 0.739261 C 55 ARG
176 C176 6.52035 9.24529 1.47959 C 55 ARG
177 C177 7.49927 8.99536 -0.0134765 C 55 ARG
178 C178 7.52022 9.23456 1.46718 C 55 ARG
179 C179 5.25311 10.3068 2.50558 C 56 ASN
180 C180 5.27011 10.3378 1.75641 C 56 ASN
181 C181 5.28712 10.3689 1.00725 C 56 ASN
182 C182 4.65967 10.785 1.01024 C 56 ASN
183 C183 5.95728 10.7108 1.03662 C 56 ASN
184 C184 4.04164 11.1907 1.01301 C 56 ASN
185 C185 6.6169 11.0433 1.06537 C 56 ASN
186 C186 5.21909 10.2448 4.00391 C 56 ASN
187 H187 4.77462 9.6505 1.21737 H 57 ASP
188 H188 5.7573 9.61279 1.15655 H 58 ASP
189 H189 6.24495 10.3029 2.50391 H 59 GLY
190 C190 5.25297 13.3905 1.00172 C 60 THY
191 C191 5.2502 13.3199 2.50005 C 60 THY
192 C192 5.24743 13.2494 3.99839 C 60 THY
193 O193 3.25581 12.305 -1.09048 O 61 ALA
194 O194 3.40912 12.3155 -2.07861 O 61 ALA
195 O195 7.2399 12.3047 -1.09328 O 62 ALA
196 O196 7.42214 12.3154 -2.07648 O 62 ALA
197 O197 3.44892 13.0594 -2.06011 O 63 ALA
198 O198 4.44881 13.062 -2.04528 O 63 ALA
199 O199 5.44869 13.0646 -2.03046 O 63 ALA
200 O200 6.44858 13.0673 -2.01563 O 63 ALA
201 O201 7.44847 13.0699 -2.00081 O 63 ALA
202 O202 3.44753 13.5593 -2.05534 O 63 ALA
203 O203 4.44742 13.562 -2.04051 O 63 ALA
204 O204 5.44731 13.5646 -2.02568 O 63 ALA
205 O205 6.44719 13.5672 -2.01086 O 63 ALA
206 O206 7.44708 13.5699 -1.99603 O 63 ALA
207 O207 3.44083 13.3046 -1.5578 O 63 ALA
208 O208 4.44071 13.3072 -1.54297 O 63 ALA
209 O209 5.4406 13.3098 -1.52815 O 63 ALA
210 O210 6.44049 13.3125 -1.51332 O 63 ALA
211 O211 7.44038 13.3151 -1.4985 O 63 ALA
212 O212 5.25821 12.2894 2.48996 O 64 GLY
213 H213 2 9 0 H 65 GLY
214 H214 8.5 9 0 H 66 GLY
215 H215 3.25 11.3 -1.1 H 67 GLY
216 H216 7.25 11.3 -1.1 H 68 GLY
217 H217 6.25 13.3 2.5 H 69 GLY
218 C218 -6.4938 9.01904 -0.00998265 C 70 ALA
219 C219 -6.4909 8.86023 0.723004 C 70 ALA
220 C220 -6.48801 8.70142 1.45599 C 70 ALA
221 C221 -7.49949 9.32347 -1.47487 C 70 ALA
222 C222 -7.49371 9.00585 -0.00889456 C 70 ALA
223 C223 -7.48792 8.68823 1.45708 C 70 ALA
224 C224 -6.50537 9.65428 -2.94193 C 70 ALA
225 C225 -6.49958 9.33666 -1.47596 C 70 ALA
226 C226 -3.9928 9.01638 -0.00245802 C 71 ARG
227 C227 -4.01103 8.90579 0.739119 C 71 ARG
228 C228 -4.02926 8.79521 1.48069 C 71 ARG
229 C229 -2.95666 9.22657 -1.46267 C 71 ARG
230 C230 -2.99312 9.0054 0.0204835 C 71 ARG
231 C231 -3.02959 8.78423 1.50364 C 71 ARG
232 C232 -3.91987 9.45872 -2.96877 C 71 ARG
233 C233 -3.95633 9.23755 -1.48562 C 71 ARG
234 C234 -5.26064 10.3005 2.49837 C 72 ASN
235 C235 -5.26861 10.099 1.77599 C 72 ASN
236 C236 -5.27658 9.8975 1.0536 C 72 ASN
237 C237 -5.9076 10.2949 0.949721 C 72 ASN
238 C238 -4.60917 10.2312 0.953156 C 72 ASN
239 C239 -6.52912 10.6822 0.848556 C 72 ASN
240 C240 -3.95222 10.5558 0.855374 C 72 ASN
241 C241 -5.24471 10.7034 3.94314 C 72 ASN
242 H242 -5.75936 9.23359 1.40187 H 73 ASP
243 H243 -4.80504 9.2096 1.3894 H 74 ASP
244 H244 -4.263 10.2928 2.4976 H 75 GLY
245 C245 -5.22784 12.9558 1.05035 C 76 THY
246 C246 -5.25383 13.3294 2.50285 C 76 THY
247 C247 -5.27981 13.703 3.95534 C 76 THY
248 O248 -7.25174 12.3009 -1.12854 O 77 ALA
249 O249 -7.3529 12.2704 -2.12294 O 77 ALA
250 O250 -3.2442 12.2959 -1.10626 O 78 ALA
251 O251 -3.29896 12.2884 -2.10473 O 78 ALA
252 O252 -7.33819 13.0142 -2.11271 O 79 ALA
253 O253 -6.33841 13.0156 -2.0918 O 79 ALA
254 O254 -5.33863 13.0169 -2.07089 O 79 ALA
255 O255 -4.33885 13.0183 -2.04998 O 79 ALA
256 O256 -3.33906 13.0197 -2.02907 O 79 ALA
257 O257 -7.33917 13.514 -2.09872 O 79 ALA
258 O258 -6.33939 13.5154 -2.07781 O 79 ALA
259 O259 -5.33961 13.5167 -2.0569 O 79 ALA
260 O260 -4.33982 13.5181 -2.03599 O 79 ALA
261 O261 -3.34004 13.5195 -2.01508 O 79 ALA
262 O262 -7.34911 13.2501 -1.60602 O 79 ALA
263 O263 -6.34933 13.2514 -1.58511 O 79 ALA
264 O264 -5.34955 13.2528 -1.5642 O 79 ALA
265 O265 -4.34977 13.2542 -1.54329 O 79 ALA
266 O266 -3.34999 13.2556 -1.52238 O 79 ALA
267 O267 -5.26047 12.2786 2.51707 O 80 GLY
268 H268 -8.5 9 0 H 81 GLY
269 H269 -2 9 0 H 82 GLY
270 H270 -7.25 11.3 -1.1 H 83 GLY
271 H271 -3.25 11.3 -1.1 H 84 GLY
272 H272 -4.25 13.3 2.5 H 85 GLY
273 O273 6.16336 16.9551 3.7421 O 86 ASP
274 O274 7.32965 16.9068 4.68414 O 86 ASP
275 C275 5.17521 18.8024 -0.502199 C 87 ASN
276 C276 5.20764 18.9014 0.994178 C 87 ASN
277 C277 5.24006 19.0004 2.49055 C 87 ASN
278 C278 5.27248 19.0994 3.98693 C 87 ASN
279 C279 5.24737 16.0301 0.995106 C 88 ASP
280 C280 5.24634 15.9965 2.49473 C 88 ASP
281 C281 5.24531 15.9628 3.99435 C 88 ASP
282 O282 7.21234 17.9047 4.758 O 89 ARG
283 O283 8.04122 18.0472 4.21703 O 89 ARG
284 O284 8.87009 18.1897 3.67606 O 89 ARG
285 O285 9.69897 18.3323 3.13509 O 89 ARG
286 O286 10.5278 18.4748 2.59412 O 89 ARG
287 C287 11.5387 17.5009 2.49381 C 90 ASN
288 C288 10.539 17.4858 2.51053 C 90 ASN
289 C289 6.12513 17.7032 1.74157 C 91 ARG
290 C290 5.13241 17.5238 2.85167 C 91 ARG
291 C291 4.13968 17.3444 3.96177 C 91 ARG
292 O292 4.7609 17.5106 2.5173 O 91 ARG
293 C293 8.25126 17.5126 1.35501 C 92 GLY
294 C294 8.25327 18.5123 1.33237 C 92 GLY
295 H295 11.55 16.5 2.5 H 93 GLY
296 O296 -7.23466 17.8366 4.87105 O 94 ASP
297 O297 -6.07521 17.9191 3.92296 O 94 ASP
298 C298 -5.25246 19.3521 -0.480088 C 95 ASN
299 C299 -5.25637 19.1755 1.00947 C 95 ASN
300 C300 -5.26028 18.9989 2.49903 C 95 ASN
301 C301 -5.26419 18.8222 3.98859 C 95 ASN
302 C302 -5.25336 15.6026 1.04128 C 96 ASP
303 C303 -5.24246 16.0103 2.48478 C 96 ASP
304 C304 -5.23157 16.4179 3.92829 C 96 ASP
305 O305 -10.5799 18.4974 2.51979 O 97 ARG
306 O306 -9.75625 18.5794 3.08099 O 97 ARG
307 O307 -8.93265 18.6615 3.64219 O 97 ARG
308 O308 -8.10905 18.7435 4.20339 O 97 ARG
309 O309 -7.28544 18.8255 4.76459 O 97 ARG
310 C310 -10.5649 17.505 2.60975 C 98 ASN
311 C311 -11.5587 17.5003 2.49931 C 98 ASN
312 C312 -6.16926 17.4677 1.82717 C 99 ARG
313 C313 -5.08512 17.6044 2.85476 C 99 ARG
314 C314 -4.00097 17.741 3.88236 C 99 ARG
315 O315 -4.74203 17.498 2.50694 O 99 ARG
316 C316 -8.25125 17.5019 1.3481 C 100 GLY
317 C317 -8.24478 18.5019 1.35178 C 100 GLY
318 H318 -11.55 16.5 2.5 H 101 GLY
319 C319 -1.24644 21.9869 2.48282 C 102 ALA
320 C320 -1.24361 21.9021 3.228 C 102 ALA
321 C321 -1.24078 21.8173 3.97319 C 102 ALA
322 C322 -5.24637 22.0045 2.50002 C 102 ALA
323 C323 -5.2407 21.8349 3.99039 C 102 ALA
324 C324 1.24466 22 2.49909 C 103 ARG
325 C325 1.24507 22.0417 3.24794 C 103 ARG
326 C326 1.24547 22.0833 3.99678 C 103 ARG
327 C327 5.24465 22.0086 2.49646 C 103 ARG
328 C328 5.24546 22.0919 3.99414 C 103 ARG
329 C329 0.000630654 23.3046 5.01053 C 104 ASN
330 C330 -0.0362658 23.1148 4.28587 C 104 ASN
331 C331 -0.0731623 22.925 3.56122 C 104 ASN
332 C332 -0.773749 23.1985 3.52527 C 104 ASN
333 C333 0.508697 23.3792 3.41266 C 104 ASN
334 C334 -1.46291 23.4638 3.49089 C 104 ASN
335 C335 1.08225 23.8224 3.26739 C 104 ASN
336 C336 0.0744237 23.6841 6.45985 C 104 ASN
337 H337 -0.397814 22.1543 3.91892 H 105 ASP
338 H338 0.376802 22.2235 3.87406 H 106 ASP
339 H339 0.999196 23.3072 5.00043 H 107 GLY
340 C340 0.0156428 25.9466 3.54378 C 108 THY
341 C341 0.00872558 26.3121 4.99856 C 108 THY
342 C342 0.00180832 26.6776 6.45334 C 108 THY
343 O343 -1.98993 25.3062 1.38874 O 109 ALA
344 O344 -1.98892 25.2847 0.388971 O 109 ALA
345 O345 1.98958 25.3031 1.39896 O 110 ALA
346 O346 2.04623 25.3108 0.400598 O 110 ALA
347 O347 -1.9688 26.0247 0.366837 O 111 ALA
348 O348 -0.968941 26.0322 0.381621 O 111 ALA
349 O349 0.0309225 26.0397 0.396405 O 111 ALA
350 O350 1.03079 26.0472 0.411189 O 111 ALA
351 O351 2.03065 26.0547 0.425973 O 111 ALA
352 O352 -1.97247 26.5246 0.360915 O 111 ALA
353 O353 -0.972603 26.5321 0.3757 O 111 ALA
354 O354 0.0272605 26.5396 0.390484 O 111 ALA
355 O355 1.02712 26.5471 0.405268 O 111 ALA
356 O356 2.02699 26.5546 0.420052 O 111 ALA
357 O357 -1.97807 26.2805 0.863787 O 111 ALA
358 O358 -0.978207 26.288 0.878571 O 111 ALA
359 O359 0.0216558 26.2955 0.893355 O 111 ALA
360 O360 1.02152 26.303 0.908139 O 111 ALA
361 O361 2.02138 26.3105 0.922923 O 111 ALA
362 O362 0.00150547 25.279 5.00274 O 112 GLY
363 H363 -6.25 22 2.5 H 113 GLY
364 H364 6.25 22 2.5 H 114 GLY
365 H365 -2 24.3 1.4 H 115 GLY
366 H366 2 24.3 1.4 H 116 GLY
367 H367 1 26.3 5 H 117 GLY
368 C368 5.23931 26.3919 4.00537 C 118 GUA
369 C369 5.24953 26.2903 5.50189 C 118 GUA
370 C370 5.25975 26.1887 6.99841 C 118 GUA
371 H371 4.25 26.3 5.5 H 119 GLY
372 H372 6.25 26.3 5.5 H 120 GLY
373 C373 -0.0216819 29.6716 6.54187 C 121 CYT
374 C374 -0.0078977 29.3072 7.99688 C 121 CYT
375 C375 0.0058865 28.9429 9.45189 C 121 CYT
376 H376 -1 29.3 8 H 122 GLY
377 H377 1 29.3 8 H 123 GLY
378 O378 -7.23906 7.99804 -5.10361 O 124 ALA
379 O379 -7.27303 8.00597 -6.103 O 124 ALA
380 O380 -3.25011 8.00178 -5.10859 O 125 ALA
381 O381 -3.23322 7.99742 -6.10843 O 125 ALA
382 O382 -7.24867 8.76092 -6.02863 O 126 ALA
383 O383 -6.24894 8.75725 -6.05161 O 126 ALA
384 O384 -5.24921 8.75359 -6.07459 O 126 ALA
385 O385 -4.24948 8.74992 -6.09758 O 126 ALA
386 O386 -3.24975 8.74626 -6.12056 O 126 ALA
387 O387 -7.24653 9.26073 -6.01493 O 126 ALA
388 O388 -6.2468 9.25706 -6.03791 O 126 ALA
389 O389 -5.24707 9.2534 -6.06089 O 126 ALA
390 O390 -4.24734 9.24973 -6.08388 O 126 ALA
391 O391 -3.24761 9.24607 -6.10686 O 126 ALA
392 O392 -7.23616 8.99708 -5.5221 O 126 ALA
393 O393 -6.23643 8.99341 -5.54508 O 126 ALA
394 O394 -5.2367 8.98975 -5.56806 O 126 ALA
395 O395 -4.23697 8.98608 -5.59104 O 126 ALA
396 O396 -3.23724 8.98242 -5.61403 O 126 ALA
397 H397 -7.25 7 -5.1 H 127 GLY
398 H398 -3.25 7 -5.1 H 128 GLY
399 O399 3.26254 17.9913 -2.00075 O 129 ALA
400 O400 3.28379 17.9828 -3.00049 O 129 ALA
401 O401 7.2637 17.9988 -2.00185 O 130 ALA
402 O402 7.21132 18.0146 -3.00035 O 130 ALA
403 O403 3.251 18.7333 -2.91214 O 131 ALA
404 O404 4.25081 18.7409 -2.9302 O 131 ALA
405 O405 5.25062 18.7484 -2.94827 O 131 ALA
406 O406 6.25043 18.756 -2.96633 O 131 ALA
407 O407 7.25024 18.7635 -2.9844 O 131 ALA
408 O408 3.24814 19.2309 -2.86298 O 131 ALA
409 O409 4.24795 19.2384 -2.88105 O 131 ALA
410 O410 5.24776 19.246 -2.89911 O 131 ALA
411 O411 6.24757 19.2535 -2.91718 O 131 ALA
412 O412 7.24738 19.2611 -2.93524 O 131 ALA
413 O413 3.25893 18.933 -2.39006 O 131 ALA
414 O414 4.25874 18.9406 -2.40813 O 131 ALA
415 O415 5.25855 18.9481 -2.42619 O 131 ALA
416 O416 6.25836 18.9556 -2.44426 O 131 ALA
417 O417 7.25817 18.9632 -2.46232 O 131 ALA
418 H418 3.25 17 -2 H 132 GLY
419 H419 7.25 17 -2 H 133 GLY
420 O420 -7.25265 18.0004 -2.00151 O 134 ALA
421 O421 -7.32644 18.0086 -2.99875 O 134 ALA
422 O422 -3.25007 17.9991 -2.001 O 135 ALA
423 O423 -3.34597 17.9963 -2.99639 O 135 ALA
424 O424 -7.28578 18.7614 -3.01456 O 136 ALA
425 O425 -6.28586 18.7577 -3.02656 O 136 ALA
426 O426 -5.28594 18.754 -3.03857 O 136 ALA
427 O427 -4.28602 18.7503 -3.05057 O 136 ALA
428 O428 -3.2861 18.7466 -3.06257 O 136 ALA
429 O429 -7.2844 19.2599 -3.05331 O 136 ALA
430 O430 -6.28447 19.2562 -3.06531 O 136 ALA
431 O431 -5.28455 19.2525 -3.07732 O 136 ALA
432 O432 -4.28463 19.2488 -3.08932 O 136 ALA
433 O433 -3.28471 19.2451 -3.10132 O 136 ALA
434 O434 -7.27896 19.0494 -2.53547 O 136 ALA
435 O435 -6.27904 19.0457 -2.54748 O 136 ALA
436 O436 -5.27912 19.042 -2.55948 O 136 ALA
437 O437 -4.2792 19.0383 -2.57148 O 136 ALA
438 O438 -3.27928 19.0346 -2.58349 O 136 ALA
439 H439 -7.25 17 -2 H 137 GLY
440 H440 -3.25 17 -2 H 138 GLY
441 H441 2.99717 -2.99184 -0.000424021 H 0 ASP
442 H442 2 -3 0 H 4 GLY
443 H443 5.9971 -2.99142 0.0190094 H 0 ASP
444 H444 7 -3 0 H 5 GLY
445 H445 2.49972 -3.98558 -4.58952 H 1 ALA
446 H446 2.48172 -3.22819 -4.64902 H 3 ALA
447 H447 6.48708 -4.04747 -4.61859 H 2 ALA
448 H448 6.48082 -3.30616 -4.61571 H 3 ALA
449 H449 2.5 -5 -3.6 H 6 GLY
450 H450 2.48862 -3.99838 -3.58967 H 1 ALA
451 H451 6.5 -5 -3.6 H 7 GLY
452 H452 6.49606 -4.0092 -3.61937 H 2 ALA
453 H453 5.3622 -14.0172 1.99134 H 8 ASP
454 H454 5.47085 -13.012 1.93417 H 11 ARG
455 H455 9.36272 -13.0103 1.0104 H 11 ARG
456 H456 9.22142 -13.9887 0.98963 H 12 ASN
457 H457 4.15017 -13.9945 1.10791 H 8 ASP
458 H458 2.92262 -13.952 0.261371 H 13 ARG
459 H459 9.3 -15 0 H 15 GLY
460 H460 9.28675 -13.9884 -0.00823384 H 12 ASN
461 H461 2.5 -12.5 0 H 15 GLY
462 H462 3.00546 -12.5041 0.0152636 H 9 ASN
463 H463 2.5 -15.5 0 H 15 GLY
464 H464 2.98987 -15.5085 -0.0035166 H 10 ASP
465 H465 2.4987 -13.9929 -0.000586637 H 13 ARG
466 H466 3.5 -15.5 0 H 15 GLY
467 H467 6 -15 -1.15 H 15 GLY
468 H468 3.5 -12.5 0 H 15 GLY
469 H469 6 -12 -1.15 H 15 GLY
470 H470 6.00151 -13.9863 -1.16825 H 14 GLY
471 H471 6.00529 -12.9864 -1.15456 H 14 GLY
472 H472 8.77965 -6.7906 1.17311 H 16 ASP
473 H473 8.90219 -5.80026 1.03661 H 19 ARG
474 H474 12.3397 -5.99861 -0.999151 H 19 ARG
475 H475 12.2866 -7.00458 -0.993267 H 20 ASN
476 H476 7.36263 -6.7679 0.681659 H 16 ASP
477 H477 5.94722 -6.98353 0.216087 H 21 ARG
478 H478 12.3 -8 0 H 23 GLY
479 H479 12.303 -7.00524 0.00659873 H 20 ASN
480 H480 5.5 -5.5 0 H 23 GLY
481 H481 6.00946 -5.50888 -0.0139655 H 17 ASN
482 H482 5.5 -8.5 0 H 23 GLY
483 H483 5.99597 -8.4897 -0.0034561 H 18 ASP
484 H484 5.49868 -7.00015 -0.00421399 H 21 ARG
485 H485 6.5 -8.5 0 H 23 GLY
486 H486 9 -8 -1.15 H 23 GLY
487 H487 6.5 -5.5 0 H 23 GLY
488 H488 9 -5 -1.15 H 23 GLY
489 H489 9.00631 -7.00924 -1.15221 H 22 GLY
490 H490 8.99826 -6.00928 -1.15006 H 22 GLY
491 H491 5.98757 -2.66892 1.4839 H 0 ASP
492 H492 6.01621 -5.16618 1.44635 H 17 ASN
493 H493 2.98763 -2.66934 1.46447 H 0 ASP
494 H494 2.96561 -12.1757 1.47832 H 9 ASN
495 H495 -6.00821 -2.9914 0.00712048 H 24 ASP
496 H496 -7 -3 0 H 28 GLY
497 H497 -3.0083 -3.00943 -0.00715118 H 24 ASP
498 H498 -2 -3 0 H 29 GLY
499 H499 -6.48858 -3.97399 -4.57984 H 25 ALA
500 H500 -6.46729 -3.21161 -4.5663 H 27 ALA
501 H501 -2.42647 -3.99227 -4.59089 H 26 ALA
502 H502 -2.46754 -3.24994 -4.54229 H 27 ALA
503 H503 -6.5 -5 -3.6 H 30 GLY
504 H504 -6.49606 -3.99253 -3.58004 H 25 ALA
505 H505 -2.5 -5 -3.6 H 31 GLY
506 H506 -2.50572 -4.00039 -3.59406 H 26 ALA
507 H507 -5.76136 -13.7927 1.23977 H 32 ASP
508 H508 -5.7351 -12.8024 1.08933 H 35 ARG
509 H509 -9.0951 -12.9872 -1.07314 H 35 ARG
510 H510 -9.15211 -13.9801 -0.977206 H 36 ASN
511 H511 -4.3388 -13.8481 0.767276 H 32 ASP
512 H512 -2.95429 -13.8998 0.18376 H 37 ARG
513 H513 -9.3 -15 0 H 39 GLY
514 H514 -9.28983 -14.0037 0.0129848 H 36 ASN
515 H515 -2.5 -12.5 0 H 39 GLY
516 H516 -2.99445 -12.4959 -0.00323713 H 33 ASN
517 H517 -2.5 -15.5 0 H 39 GLY
518 H518 -2.99932 -15.511 -0.00234551 H 34 ASP
519 H519 -2.49953 -13.9891 -0.00390635 H 37 ARG
520 H520 -3.5 -15.5 0 H 39 GLY
521 H521 -6 -15 -1.15 H 39 GLY
522 H522 -3.5 -12.5 0 H 39 GLY
523 H523 -6 -12 -1.15 H 39 GLY
524 H524 -6.0067 -14.0048 -1.14246 H 38 GLY
525 H525 -5.99051 -13.0051 -1.15721 H 38 GLY
526 H526 -8.18604 -7.23915 2.20261 H 40 ASP
527 H527 -8.1877 -6.24141 2.22231 H 43 ARG
528 H528 -12.0049 -6.0417 1.04362 H 43 ARG
529 H529 -12.1176 -7.01869 0.986014 H 44 ASN
530 H530 -6.91731 -7.142 1.40832 H 40 ASP
531 H531 -5.88008 -7.06353 0.337463 H 45 ARG
532 H532 -12.3 -8 0 H 47 GLY
533 H533 -12.2987 -7.00944 0.00259644 H 44 ASN
534 H534 -5.5 -5.5 0 H 47 GLY
535 H535 -5.99989 -5.5024 -0.00409222 H 41 ASN
536 H536 -5.5 -8.5 0 H 47 GLY
537 H537 -5.99933 -8.50505 0.00823261 H 42 ASP
538 H538 -5.51854 -7.00312 -0.00259215 H 45 ARG
539 H539 -6.5 -8.5 0 H 47 GLY
540 H540 -9 -8 -1.15 H 47 GLY
541 H541 -6.5 -5.5 0 H 47 GLY
542 H542 -9 -5 -1.15 H 47 GLY
543 H543 -9.00009 -7.00238 -1.15639 H 46 GLY
544 H544 -8.99288 -6.00242 -1.16082 H 46 GLY
545 H545 -5.99988 -2.78046 1.49219 H 24 ASP
546 H546 -5.99538 -5.28664 1.4803 H 41 ASN
547 H547 -2.99997 -2.79848 1.47792 H 24 ASP
548 H548 -2.98489 -12.3017 1.4841 H 33 ASN
549 H549 7.50363 3.0066 -0.000972607 H 48 ASP
550 H550 8.5 3 0 H 50 GLY
551 H551 -3.99636 2.99613 -0.00424778 H 48 ASP
552 H552 -5 3 0 H 49 GLY
553 H553 2.995 -0.00273494 0.0037183 H 51 ASP
554 H554 4 0 0 H 52 GLY
555 H555 -7.50499 -0.0126579 -0.00192117 H 51 ASP
556 H556 -8.5 0 0 H 53 GLY
557 H557 3.99417 8.98765 0.0029911 H 54 ALA
558 H558 6.49941 9.00609 -0.00106795 H 55 ARG
559 H559 3.99871 9.27836 1.47454 H 54 ALA
560 H560 4.77462 9.6505 1.21737 H 57 ASP
561 H561 6.52035 9.24529 1.47959 H 55 ARG
562 H562 5.7573 9.61279 1.15655 H 58 ASP
563 H563 5.28712 10.3689 1.00725 H 56 ASN
564 H564 5.25311 10.3068 2.50558 H 56 ASN
565 H565 6.24495 10.3029 2.50391 H 59 GLY
566 H566 5.21909 10.2448 4.00391 H 56 ASN
567 H567 5.24743 13.2494 3.99839 H 60 THY
568 H568 3.40912 12.3155 -2.07861 H 61 ALA
569 H569 3.44892 13.0594 -2.06011 H 63 ALA
570 H570 7.42214 12.3154 -2.07648 H 62 ALA
571 H571 7.44847 13.0699 -2.00081 H 63 ALA
572 H572 5.2502 13.3199 2.50005 H 60 THY
573 H573 5.25821 12.2894 2.48996 H 64 GLY
574 H574 2 9 0 H 65 GLY
575 H575 2.99427 9.00182 0.00328014 H 54 ALA
576 H576 8.5 9 0 H 66 GLY
577 H577 7.49927 8.99536 -0.0134765 H 55 ARG
578 H578 3.25 11.3 -1.1 H 67 GLY
579 H579 3.25581 12.305 -1.09048 H 61 ALA
580 H580 7.25 11.3 -1.1 H 68 GLY
581 H581 7.2399 12.3047 -1.09328 H 62 ALA
582 H582 6.25 13.3 2.5 H 69 GLY
583 H583 -6.4938 9.01904 -0.00998265 H 70 ALA
584 H584 -3.9928 9.01638 -0.00245802 H 71 ARG
585 H585 -6.48801 8.70142 1.45599 H 70 ALA
586 H586 -5.75936 9.23359 1.40187 H 73 ASP
587 H587 -4.02926 8.79521 1.48069 H 71 ARG
588 H588 -4.80504 9.2096 1.3894 H 74 ASP
589 H589 -5.27658 9.8975 1.0536 H 72 ASN
590 H590 -5.26064 10.3005 2.49837 H 72 ASN
591 H591 -4.263 10.2928 2.4976 H 75 GLY
592 H592 -5.24471 10.7034 3.94314 H 72 ASN
593 H593 -5.27981 13.703 3.95534 H 76 THY
594 H594 -7.3529 12.2704 -2.12294 H 77 ALA
595 H595 -7.33819 13.0142 -2.11271 H 79 ALA
596 H596 -3.29896 12.2884 -2.10473 H 78 ALA
597 H597 -3.33906 13.0197 -2.02907 H 79 ALA
598 H598 -5.25383 13.3294 2.50285 H 76 THY
599 H599 -5.26047 12.2786 2.51707 H 80 GLY
600 H600 -8.5 9 0 H 81 GLY
601 H601 -7.49371 9.00585 -0.00889456 H 70 ALA
602 H602 -2 9 0 H 82 GLY
603 H603 -2.99312 9.0054 0.0204835 H 71 ARG
604 H604 -7.25 11.3 -1.1 H 83 GLY
605 H605 -7.25174 12.3009 -1.12854 H 77 ALA
606 H606 -3.25 11.3 -1.1 H 84 GLY
607 H607 -3.2442 12.2959 -1.10626 H 78 ALA
608 H608 -4.25 13.3 2.5 H 85 GLY
609 H609 7.32965 16.9068 4.68414 H 86 ASP
610 H610 7.21234 17.9047 4.758 H 89 ARG
611 H611 10.5278 18.4748 2.59412 H 89 ARG
612 H612 10.539 17.4858 2.51053 H 90 ASN
613 H613 6.16336 16.9551 3.7421 H 86 ASP
614 H614 5.13241 17.5238 2.85167 H 91 ARG
615 H615 11.55 16.5 2.5 H 93 GLY
616 H616 11.5387 17.5009 2.49381 H 90 ASN
617 H617 4.75 19 2.5 H 93 GLY
618 H618 5.24006 19.0004 2.49055 H 87 ASN
619 H619 4.75 16 2.5 H 93 GLY
620 H620 5.24634 15.9965 2.49473 H 88 ASP
621 H621 4.7609 17.5106 2.5173 H 91 ARG
622 H622 5.75 16 2.5 H 93 GLY
623 H623 8.25 16.5 1.35 H 93 GLY
624 H624 5.75 19 2.5 H 93 GLY
625 H625 8.25 19.5 1.35 H 93 GLY
626 H626 8.25126 17.5126 1.35501 H 92 GLY
627 H627 8.25327 18.5123 1.33237 H 92 GLY
628 H628 -7.23466 17.8366 4.87105 H 94 ASP
629 H629 -7.28544 18.8255 4.76459 H 97 ARG
630 H630 -10.5799 18.4974 2.51979 H 97 ARG
631 H631 -10.5649 17.505 2.60975 H 98 ASN
632 H632 -6.07521 17.9191 3.92296 H 94 ASP
633 H633 -5.08512 17.6044 2.85476 H 99 ARG
634 H634 -11.55 16.5 2.5 H 101 GLY
635 H635 -11.5587 17.5003 2.49931 H 98 ASN
636 H636 -4.75 19 2.5 H 101 GLY
637 H637 -5.26028 18.9989 2.49903 H 95 ASN
638 H638 -4.75 16 2.5 H 101 GLY
639 H639 -5.24246 16.0103 2.48478 H 96 ASP
640 H640 -4.74203 17.498 2.50694 H 99 ARG
641 H641 -5.75 16 2.5 H 101 GLY
642 H642 -8.25 16.5 1.35 H 101 GLY
643 H643 -5.75 19 2.5 H 101 GLY
644 H644 -8.25 19.5 1.35 H 101 GLY
645 H645 -8.25125 17.5019 1.3481 H 100 GLY
646 H646 -8.24478 18.5019 1.35178 H 100 GLY
647 H647 -1.24644 21.9869 2.48282 H 102 ALA
648 H648 1.24466 22 2.49909 H 103 ARG
649 H649 -1.24078 21.8173 3.97319 H 102 ALA
650 H650 -0.397814 22.1543 3.91892 H 105 ASP
651 H651 1.24547 22.0833 3.99678 H 103 ARG
652 H652 0.376802 22.2235 3.87406 H 106 ASP
653 H653 -0.0731623 22.925 3.56122 H 104 ASN
654 H654 0.000630654 23.3046 5.01053 H 104 ASN
655 H655 0.999196 23.3072 5.00043 H 107 GLY
656 H656 0.0744237 23.6841 6.45985 H 104 ASN
657 H657 0.00180832 26.6776 6.45334 H 108 THY
658 H658 -1.98892 25.2847 0.388971 H 109 ALA
659 H659 -1.9688 26.0247 0.366837 H 111 ALA
660 H660 2.04623 25.3108 0.400598 H 110 ALA
661 H661 2.03065 26.0547 0.425973 H 111 ALA
662 H662 0.00872558 26.3121 4.99856 H 108 THY
663 H663 0.00150547 25.279 5.00274 H 112 GLY
664 H664 -6.25 22 2.5 H 113 GLY
665 H665 -5.24637 22.0045 2.50002 H 102 ALA
666 H666 6.25 22 2.5 H 114 GLY
667 H667 5.24465 22.0086 2.49646 H 103 ARG
668 H668 -2 24.3 1.4 H 115 GLY
669 H669 -1.98993 25.3062 1.38874 H 109 ALA
670 H670 2 24.3 1.4 H 116 GLY
671 H671 1.98958 25.3031 1.39896 H 110 ALA
672 H672 1 26.3 5 H 117 GLY
673 H673 5.24953 26.2903 5.50189 H 118 GUA
674 H674 4.25 26.3 5.5 H 119 GLY
675 H675 6.25 26.3 5.5 H 120 GLY
676 H676 -0.0078977 29.3072 7.99688 H 121 CYT
677 H677 -1 29.3 8 H 122 GLY
678 H678 1 29.3 8 H 123 GLY
679 H679 -7.27303 8.00597 -6.103 H 124 ALA
680 H680 -7.24867 8.76092 -6.02863 H 126 ALA
681 H681 -3.23322 7.99742 -6.10843 H 125 ALA
682 H682 -3.24975 8.74626 -6.12056 H 126 ALA
683 H683 -7.25 7 -5.1 H 127 GLY
684 H684 -7.23906 7.99804 -5.10361 H 124 ALA
685 H685 -3.25 7 -5.1 H 128 GLY
686 H686 -3.25011 8.00178 -5.10859 H 125 ALA
687 H687 3.28379 17.9828 -3.00049 H 129 ALA
688 H688 3.251 18.7333 -2.91214 H 131 ALA
689 H689 7.21132 18.0146 -3.00035 H 130 ALA
690 H690 7.25024 18.7635 -2.9844 H 131 ALA
691 H691 3.25 17 -2 H 132 GLY
692 H692 3.26254 17.9913 -2.00075 H 129 ALA
693 H693 7.25 17 -2 H 133 GLY
694 H694 7.2637 17.9988 -2.00185 H 130 ALA
695 H695 -7.32644 18.0086 -2.99875 H 134 ALA
696 H696 -7.28578 18.7614 -3.01456 H 136 ALA
697 H697 -3.34597 17.9963 -2.99639 H 135 ALA
698 H698 -3.2861 18.7466 -3.06257 H 136 ALA
699 H699 -7.25 17 -2 H 137 GLY
700 H700 -7.25265 18.0004 -2.00151 H 134 ALA
701 H701 -3.25 17 -2 H 138 GLY
702 H702 -3.25007 17.9991 -2.001 H 135 ALA
703 H703 -2.99698 3.21332 1.48036 H 48 ASP
704 H704 2.99392 0.311105 1.47052 H 51 ASP
705 H705 7.50301 3.22288 1.48335 H 48 ASP
706 H706 7.52022 9.23456 1.46718 H 55 ARG
707 H707 -3.99574 2.77984 -1.48857 H 48 ASP
708 H708 -2.95666 9.22657 -1.46267 H 71 ARG
709 H709 -7.50607 0.301182 1.46488 H 51 ASP
710 H710 -7.49949 9.32347 -1.47487 H 70 ALA
711 H711 -6.50391 -0.325553 -1.46818 H 51 ASP
712 H712 2.99881 9.29253 1.47483 H 54 ALA
713 H713 5.24531 15.9628 3.99435 H 88 ASP
714 H714 -5.23157 16.4179 3.92829 H 96 ASP
715 H715 5.24546 22.0919 3.99414 H 103 ARG
716 H716 5.27248 19.0994 3.98693 H 87 ASN
717 H717 -5.2407 21.8349 3.99039 H 102 ALA
718 H718 -5.26419 18.8222 3.98859 H 95 ASN
719 H719 5.23931 26.3919 4.00537 H 118 GUA
720 H720 -0.0216819 29.6716 6.54187 H 121 CYT
@<TRIPOS>BOND
1 1 2 2
2 1 4 2
3 2 3 2
4 4 5 2
5 5 6 2
6 7 8 2
7 9 10 2
8 11 16 2
9 11 21 2
10 11 12 2
11 12 17 2
12 12 22 2
13 12 13 2
14 13 18 2
15 13 23 2
16 13 14 2
17 14 19 2
18 14 24 2
19 14 15 2
20 15 20 2
21 15 25 2
22 30 31 2
23 32 33 2
24 33 34 2
25 35 36 2
26 36 37 2
27 38 39 2
28 39 40 2
29 40 41 2
30 41 42 2
31 43 44 2
32 45 46 2
33 46 48 2
34 46 47 2
35 49 50 2
36 52 53 2
37 54 55 2
38 55 56 2
39 57 58 2
40 58 59 2
41 60 61 2
42 61 62 2
43 62 63 2
44 63 64 2
45 65 66 2
46 67 68 2
47 68 70 2
48 68 69 2
49 71 72 2
50 74 75 2
51 74 77 2
52 75 76 2
53 77 78 2
54 78 79 2
55 80 81 2
56 82 83 2
57 84 89 2
58 84 94 2
59 84 85 2
60 85 90 2
61 85 95 2
62 85 86 2
63 86 91 2
64 86 96 2
65 86 87 2
66 87 92 2
67 87 97 2
68 87 88 2
69 88 93 2
70 88 98 2
71 103 104 2
72 105 106 2
73 106 107 2
74 108 109 2
75 109 110 2
76 111 112 2
77 112 113 2
78 113 114 2
79 114 115 2
80 116 117 2
81 118 119 2
82 119 121 2
83 119 120 2
84 122 123 2
85 125 126 2
86 127 128 2
87 128 129 2
88 130 131 2
89 131 132 2
90 133 134 2
91 134 135 2
92 135 136 2
93 136 137 2
94 138 139 2
95 140 141 2
96 141 143 2
97 141 142 2
98 144 145 2
99 147 153 2
100 147 148 2
101 147 150 2
102 148 154 2
103 148 149 2
104 149 155 2
105 150 151 2
106 151 152 2
107 158 159 2
108 158 161 2
109 159 160 2
110 161 164 2
111 161 162 2
112 162 165 2
113 162 163 2
114 163 166 2
115 169 170 2
116 169 172 2
117 170 171 2
118 171 173 2
119 174 175 2
120 174 177 2
121 175 176 2
122 176 178 2
123 179 180 2
124 179 186 2
125 180 181 2
126 181 182 2
127 181 183 2
128 182 184 2
129 183 185 2
130 190 191 2
131 191 192 2
132 193 194 2
133 195 196 2
134 197 202 2
135 197 207 2
136 197 198 2
137 198 203 2
138 198 208 2
139 198 199 2
140 199 204 2
141 199 209 2
142 199 200 2
143 200 205 2
144 200 210 2
145 200 201 2
146 201 206 2
147 201 211 2
148 218 219 2
149 218 222 2
150 219 220 2
151 220 223 2
152 221 225 2
153 222 221 2
154 225 224 2
155 226 227 2
156 226 230 2
157 227 228 2
158 228 231 2
159 229 233 2
160 230 229 2
161 233 232 2
162 234 235 2
163 234 241 2
164 235 236 2
165 236 237 2
166 236 238 2
167 237 239 2
168 238 240 2
169 245 246 2
170 246 247 2
171 248 249 2
172 250 251 2
173 252 257 2
174 252 262 2
175 252 253 2
176 253 258 2
177 253 263 2
178 253 254 2
179 254 259 2
180 254 264 2
181 254 255 2
182 255 260 2
183 255 265 2
184 255 256 2
185 256 261 2
186 256 266 2
187 273 274 2
188 275 276 2
189 276 277 2
190 277 278 2
191 279 280 2
192 280 281 2
193 282 283 2
194 283 284 2
195 284 285 2
196 285 286 2
197 287 288 2
198 289 290 2
199 290 292 2
200 290 291 2
201 293 294 2
202 296 297 2
203 298 299 2
204 299 300 2
205 300 301 2
206 302 303 2
207 303 304 2
208 305 306 2
209 306 307 2
210 307 308 2
211 308 309 2
212 310 311 2
213 312 313 2
214 313 315 2
215 313 314 2
216 316 317 2
217 319 320 2
218 319 322 2
219 320 321 2
220 322 323 2
221 324 325 2
222 324 327 2
223 325 326 2
224 327 328 2
225 329 330 2
226 329 336 2
227 330 331 2
228 331 332 2
229 331 333 2
230 332 334 2
231 333 335 2
232 340 341 2
233 341 342 2
234 343 344 2
235 345 346 2
236 347 352 2
237 347 357 2
238 347 348 2
239 348 353 2
240 348 358 2
241 348 349 2
242 349 354 2
243 349 359 2
244 349 350 2
245 350 355 2
246 350 360 2
247 350 351 2
248 351 356 2
249 351 361 2
250 368 369 2
251 369 370 2
252 373 374 2
253 374 375 2
254 378 379 2
255 380 381 2
256 382 387 2
257 382 392 2
258 382 383 2
259 383 388 2
260 383 393 2
261 383 384 2
262 384 389 2
263 384 394 2
264 384 385 2
265 385 390 2
266 385 395 2
267 385 386 2
268 386 391 2
269 386 396 2
270 399 400 2
271 401 402 2
272 403 408 2
273 403 413 2
274 403 404 2
275 404 409 2
276 404 414 2
277 404 405 2
278 405 410 2
279 405 415 2
280 405 406 2
281 406 411 2
282 406 416 2
283 406 407 2
284 407 412 2
285 407 417 2
286 420 421 2
287 422 423 2
288 424 429 2
289 424 434 2
290 424 425 2
291 425 430 2
292 425 435 2
293 425 426 2
294 426 431 2
295 426 436 2
296 426 427 2
297 427 432 2
298 427 437 2
299 427 428 2
300 428 433 2
301 428 438 2
