#
#
#

#
#

@<TRIPOS>MOLECULE
Panda
273 69
SMALL
NO CHARGES


@<TRIPOS>ATOM
1 C1 0.251656 0.0100538 -0.0194389 C 0 GLY
2 C2 0.262876 0.3828 0.631279 C 0 GLY
3 C3 0.274096 0.755547 1.282 C 0 GLY
4 C4 -0.748016 -0.000550994 0.00387222 C 0 GLY
5 C5 -0.725576 0.744942 1.30531 C 0 GLY
6 C6 2.75306 0.0142128 -0.00663968 C 1 GLY
7 C7 2.75643 0.334835 0.671365 C 1 GLY
8 C8 2.7598 0.655458 1.34937 C 1 GLY
9 C9 3.75303 0.00603005 -0.00773894 C 1 GLY
10 C10 3.75976 0.647275 1.34827 C 1 GLY
11 C11 1.4949 1.28386 2.50868 C 2 GLY
12 C12 1.52086 1.59771 1.828 C 2 GLY
13 C13 1.54683 1.91156 1.14732 C 2 GLY
14 C14 0.897125 2.26592 1.28592 C 2 GLY
15 C15 2.19635 2.24737 1.32693 C 2 GLY
16 C16 0.257414 2.61105 1.42065 C 2 GLY
17 C17 2.83587 2.57425 1.50205 C 2 GLY
18 C18 1.44296 0.656168 3.87004 C 2 GLY
19 H19 1.03877 1.16386 1.00009 H 3 GLY
20 H20 2.18174 1.26779 1.02487 H 4 GLY
21 H21 2.50254 1.28992 2.49212 H 5 GLY
22 C22 1.47508 5.01962 1.16154 C 6 GLY
23 C23 1.4919 4.34099 2.49914 C 6 GLY
24 C24 1.50872 3.66237 3.83675 C 6 GLY
25 O25 -0.502566 3.28855 -1.09807 O 7 GLY
26 O26 -0.606819 3.28763 -0.103523 O 7 GLY
27 O27 3.49846 3.29262 -1.0905 O 8 GLY
28 O28 3.38728 3.27277 -0.0968958 O 8 GLY
29 O29 -0.617359 4.0394 -0.189086 O 9 GLY
30 O30 0.382561 4.03486 -0.177223 O 9 GLY
31 O31 1.38248 4.03032 -0.165359 O 9 GLY
32 O32 2.3824 4.02578 -0.153496 O 9 GLY
33 O33 3.38232 4.02124 -0.141633 O 9 GLY
34 O34 -0.615 4.53934 -0.196513 O 9 GLY
35 O35 0.38492 4.5348 -0.18465 O 9 GLY
36 O36 1.38484 4.53026 -0.172787 O 9 GLY
37 O37 2.38476 4.52572 -0.160923 O 9 GLY
38 O38 3.38468 4.52118 -0.14906 O 9 GLY
39 O39 -0.622077 4.29683 0.30711 O 9 GLY
40 O40 0.377843 4.29229 0.318974 O 9 GLY
41 O41 1.37776 4.28775 0.330837 O 9 GLY
42 O42 2.37768 4.28321 0.3427 O 9 GLY
43 O43 3.3776 4.27867 0.354564 O 9 GLY
44 O44 1.5079 3.2798 2.51712 O 10 GLY
45 H45 -1.75 0 0 H 11 GLY
46 H46 4.75 0 0 H 12 GLY
47 H47 -0.5 2.3 -1.1 H 13 GLY
48 H48 3.5 2.3 -1.1 H 14 GLY
49 H49 2.5 4.3 2.5 H 15 GLY
50 C50 3.74823 -3.16703 -1.33436 C 16 GLY
51 C51 3.74845 -2.50111 0.0097243 C 16 GLY
52 C52 3.74866 -1.8352 1.35381 C 16 GLY
53 C53 6.74823 -3.17087 -1.33294 C 16 GLY
54 C54 6.74845 -2.50495 0.0111431 C 16 GLY
55 C55 6.74866 -1.83903 1.35523 C 16 GLY
56 H56 2.75 -2.5 0 H 17 GLY
57 H57 7.75 -2.5 0 H 18 GLY
58 O58 4.49102 -13.1492 1.52658 O 19 GLY
59 O59 5.66274 -13.1629 2.463 O 19 GLY
60 C60 3.73859 -12.6394 -1.34247 C 20 GLY
61 C61 3.74405 -11.9876 0.0085422 C 20 GLY
62 C62 3.7495 -11.3359 1.35955 C 20 GLY
63 C63 3.72945 -14.0998 -1.19456 C 21 GLY
64 C64 3.75174 -15.0139 -0.00549361 C 21 GLY
65 C65 3.77402 -15.928 1.18358 C 21 GLY
66 O66 5.84263 -12.1833 2.36373 O 22 GLY
67 O67 6.64232 -12.2634 1.7687 O 22 GLY
68 O68 7.44201 -12.3436 1.17367 O 22 GLY
69 O69 8.2417 -12.4238 0.578635 O 22 GLY
70 O70 9.0414 -12.504 -0.0163958 O 22 GLY
71 C71 10.0398 -13.4998 0.0029576 C 23 GLY
72 C72 9.04025 -13.5061 0.031532 C 23 GLY
73 C73 4.71727 -13.3556 -0.568131 C 24 GLY
74 C74 3.55798 -13.4072 0.382324 C 24 GLY
75 C75 2.39868 -13.4589 1.33278 C 24 GLY
76 O76 3.24856 -13.4973 2.44062e-05 O 24 GLY
77 C77 6.74645 -13.5134 -1.15358 C 25 GLY
78 C78 6.74777 -12.5134 -1.15332 C 25 GLY
79 H79 10.05 -14.5 0 H 26 GLY
80 O80 8.24243 -6.33498 0.00231262 O 27 GLY
81 O81 9.72699 -6.4137 0.202046 O 27 GLY
82 C82 6.73925 -5.68845 -1.34998 C 28 GLY
83 C83 6.74661 -5.00551 -0.0144883 C 28 GLY
84 C84 6.75397 -4.32257 1.321 C 28 GLY
85 C85 6.71255 -8.75145 -1.3157 C 29 GLY
86 C86 6.74385 -8.0116 -0.0112311 C 29 GLY
87 C87 6.77515 -7.27175 1.29324 C 29 GLY
88 O88 9.93069 -5.45143 0.209775 O 30 GLY
89 O89 10.9304 -5.46535 0.231061 O 30 GLY
90 O90 11.93 -5.47927 0.252347 O 30 GLY
91 O91 12.9297 -5.49319 0.273632 O 30 GLY
92 O92 13.9294 -5.50711 0.294918 O 30 GLY
93 C93 13.0443 -6.50169 0.0044941 C 31 GLY
94 C94 13.9932 -6.49961 0.319955 C 31 GLY
95 C95 6.79675 -7.20907 -1.29809 C 32 GLY
96 C96 6.74757 -6.51566 0.0311096 C 32 GLY
97 C97 6.6984 -5.82224 1.36031 C 32 GLY
98 O98 6.24898 -6.49329 0.000996571 O 32 GLY
99 C99 9.73716 -6.49949 -1.14246 C 33 GLY
100 C100 9.73828 -5.49972 -1.16381 C 33 GLY
101 H101 13.05 -7.5 0 H 34 GLY
102 C102 -3.75323 -3.2673 -1.26944 C 35 GLY
103 C103 -3.74797 -2.52086 0.0316418 C 35 GLY
104 C104 -3.74271 -1.77443 1.33272 C 35 GLY
105 C105 -0.753352 -3.25075 -1.29106 C 35 GLY
106 C106 -0.748092 -2.50432 0.0100243 C 35 GLY
107 C107 -0.742833 -1.75789 1.3111 C 35 GLY
108 H108 -4.75 -2.5 0 H 36 GLY
109 H109 0.25 -2.5 0 H 37 GLY
110 O110 -2.70889 -13.0692 2.31275 O 38 GLY
111 O111 -1.50683 -13.0073 1.41763 O 38 GLY
112 C112 -0.713257 -12.7233 -1.29302 C 39 GLY
113 C113 -0.746289 -11.993 0.0167668 C 39 GLY
114 C114 -0.779322 -11.2627 1.32655 C 39 GLY
115 C115 -0.740304 -14.246 -1.28838 C 40 GLY
116 C116 -0.748291 -15.005 0.00536753 C 40 GLY
117 C117 -0.756279 -15.7641 1.29912 C 40 GLY
118 O118 -6.15448 -12.4997 0.122745 O 41 GLY
119 O119 -5.32759 -12.3951 0.675288 O 41 GLY
120 O120 -4.50069 -12.2905 1.22783 O 41 GLY
121 O121 -3.6738 -12.1859 1.78038 O 41 GLY
122 O122 -2.84691 -12.0813 2.33292 O 41 GLY
123 C123 -6.06289 -13.4909 0.115072 C 42 GLY
124 C124 -7.05631 -13.4987 0.000788353 C 42 GLY
125 C125 -1.70778 -13.5338 -0.584424 C 43 GLY
126 C126 -0.561485 -13.4858 0.381864 C 43 GLY
127 C127 0.584808 -13.4379 1.34815 C 43 GLY
128 O128 -0.239455 -13.478 -0.000543393 O 43 GLY
129 C129 -3.74101 -13.5041 -1.11851 C 44 GLY
130 C130 -3.76029 -12.5045 -1.13929 C 44 GLY
131 H131 -7.05 -14.5 0 H 45 GLY
132 O132 -6.73862 -6.56969 0.140911 O 46 GLY
133 O133 -5.24481 -6.53914 0.273493 O 46 GLY
134 C134 -3.79217 -5.72472 -1.32647 C 47 GLY
135 C135 -3.75286 -5.00247 -0.0123885 C 47 GLY
136 C136 -3.71356 -4.28021 1.30169 C 47 GLY
137 C137 -3.74567 -8.77726 -1.2805 C 48 GLY
138 C138 -3.75866 -7.99945 0.00201766 C 48 GLY
139 C139 -3.77166 -7.22163 1.28453 C 48 GLY
140 O140 -10.9251 -5.50745 0.016273 O 49 GLY
141 O141 -9.92582 -5.52976 0.0453626 O 49 GLY
142 O142 -8.92649 -5.55208 0.0744523 O 49 GLY
143 O143 -7.92716 -5.5744 0.103542 O 49 GLY
144 O144 -6.92783 -5.59671 0.132632 O 49 GLY
145 C145 -11.0445 -6.49317 0.0619837 C 50 GLY
146 C146 -10.047 -6.5015 -0.00886651 C 50 GLY
147 C147 -3.84508 -7.20305 -1.28617 C 51 GLY
148 C148 -3.74418 -6.49027 0.0297977 C 51 GLY
149 C149 -3.64328 -5.77749 1.34576 C 51 GLY
150 O150 -3.24549 -6.4948 -0.00598491 O 51 GLY
151 C151 -6.75223 -6.50783 -1.14701 C 52 GLY
152 C152 -6.75879 -5.50786 -1.15029 C 52 GLY
153 H153 -10.05 -7.5 0 H 53 GLY
154 H154 0.251656 0.0100538 -0.0194389 H 0 GLY
155 H155 2.75306 0.0142128 -0.00663968 H 1 GLY
156 H156 0.274096 0.755547 1.282 H 0 GLY
157 H157 1.03877 1.16386 1.00009 H 3 GLY
158 H158 2.7598 0.655458 1.34937 H 1 GLY
159 H159 2.18174 1.26779 1.02487 H 4 GLY
160 H160 1.54683 1.91156 1.14732 H 2 GLY
161 H161 1.4949 1.28386 2.50868 H 2 GLY
162 H162 2.50254 1.28992 2.49212 H 5 GLY
163 H163 1.44296 0.656168 3.87004 H 2 GLY
164 H164 1.50872 3.66237 3.83675 H 6 GLY
165 H165 -0.606819 3.28763 -0.103523 H 7 GLY
166 H166 -0.617359 4.0394 -0.189086 H 9 GLY
167 H167 3.38728 3.27277 -0.0968958 H 8 GLY
168 H168 3.38232 4.02124 -0.141633 H 9 GLY
169 H169 1.4919 4.34099 2.49914 H 6 GLY
170 H170 1.5079 3.2798 2.51712 H 10 GLY
171 H171 -1.75 0 0 H 11 GLY
172 H172 -0.748016 -0.000550994 0.00387222 H 0 GLY
173 H173 4.75 0 0 H 12 GLY
174 H174 3.75303 0.00603005 -0.00773894 H 1 GLY
175 H175 -0.5 2.3 -1.1 H 13 GLY
176 H176 -0.502566 3.28855 -1.09807 H 7 GLY
177 H177 3.5 2.3 -1.1 H 14 GLY
178 H178 3.49846 3.29262 -1.0905 H 8 GLY
179 H179 2.5 4.3 2.5 H 15 GLY
180 H180 3.74845 -2.50111 0.0097243 H 16 GLY
181 H181 2.75 -2.5 0 H 17 GLY
182 H182 6.74845 -2.50495 0.0111431 H 16 GLY
183 H183 7.75 -2.5 0 H 18 GLY
184 H184 5.66274 -13.1629 2.463 H 19 GLY
185 H185 5.84263 -12.1833 2.36373 H 22 GLY
186 H186 9.0414 -12.504 -0.0163958 H 22 GLY
187 H187 9.04025 -13.5061 0.031532 H 23 GLY
188 H188 4.49102 -13.1492 1.52658 H 19 GLY
189 H189 3.55798 -13.4072 0.382324 H 24 GLY
190 H190 10.05 -14.5 0 H 26 GLY
191 H191 10.0398 -13.4998 0.0029576 H 23 GLY
192 H192 3.25 -12 0 H 26 GLY
193 H193 3.74405 -11.9876 0.0085422 H 20 GLY
194 H194 3.25 -15 0 H 26 GLY
195 H195 3.75174 -15.0139 -0.00549361 H 21 GLY
196 H196 3.24856 -13.4973 2.44062e-05 H 24 GLY
197 H197 4.25 -15 0 H 26 GLY
198 H198 6.75 -14.5 -1.15 H 26 GLY
199 H199 4.25 -12 0 H 26 GLY
200 H200 6.75 -11.5 -1.15 H 26 GLY
201 H201 6.74645 -13.5134 -1.15358 H 25 GLY
202 H202 6.74777 -12.5134 -1.15332 H 25 GLY
203 H203 9.72699 -6.4137 0.202046 H 27 GLY
204 H204 9.93069 -5.45143 0.209775 H 30 GLY
205 H205 13.9294 -5.50711 0.294918 H 30 GLY
206 H206 13.9932 -6.49961 0.319955 H 31 GLY
207 H207 8.24243 -6.33498 0.00231262 H 27 GLY
208 H208 6.74757 -6.51566 0.0311096 H 32 GLY
209 H209 13.05 -7.5 0 H 34 GLY
210 H210 13.0443 -6.50169 0.0044941 H 31 GLY
211 H211 6.25 -5 0 H 34 GLY
212 H212 6.74661 -5.00551 -0.0144883 H 28 GLY
213 H213 6.25 -8 0 H 34 GLY
214 H214 6.74385 -8.0116 -0.0112311 H 29 GLY
215 H215 6.24898 -6.49329 0.000996571 H 32 GLY
216 H216 7.25 -8 0 H 34 GLY
217 H217 9.75 -7.5 -1.15 H 34 GLY
218 H218 7.25 -5 0 H 34 GLY
219 H219 9.75 -4.5 -1.15 H 34 GLY
220 H220 9.73716 -6.49949 -1.14246 H 33 GLY
221 H221 9.73828 -5.49972 -1.16381 H 33 GLY
222 H222 6.74866 -1.83903 1.35523 H 16 GLY
223 H223 6.75397 -4.32257 1.321 H 28 GLY
224 H224 3.74866 -1.8352 1.35381 H 16 GLY
225 H225 3.7495 -11.3359 1.35955 H 20 GLY
226 H226 -3.74797 -2.52086 0.0316418 H 35 GLY
227 H227 -4.75 -2.5 0 H 36 GLY
228 H228 -0.748092 -2.50432 0.0100243 H 35 GLY
229 H229 0.25 -2.5 0 H 37 GLY
230 H230 -2.70889 -13.0692 2.31275 H 38 GLY
231 H231 -2.84691 -12.0813 2.33292 H 41 GLY
232 H232 -6.15448 -12.4997 0.122745 H 41 GLY
233 H233 -6.06289 -13.4909 0.115072 H 42 GLY
234 H234 -1.50683 -13.0073 1.41763 H 38 GLY
235 H235 -0.561485 -13.4858 0.381864 H 43 GLY
236 H236 -7.05 -14.5 0 H 45 GLY
237 H237 -7.05631 -13.4987 0.000788353 H 42 GLY
238 H238 -0.25 -12 0 H 45 GLY
239 H239 -0.746289 -11.993 0.0167668 H 39 GLY
240 H240 -0.25 -15 0 H 45 GLY
241 H241 -0.748291 -15.005 0.00536753 H 40 GLY
242 H242 -0.239455 -13.478 -0.000543393 H 43 GLY
243 H243 -1.25 -15 0 H 45 GLY
244 H244 -3.75 -14.5 -1.15 H 45 GLY
245 H245 -1.25 -12 0 H 45 GLY
246 H246 -3.75 -11.5 -1.15 H 45 GLY
247 H247 -3.74101 -13.5041 -1.11851 H 44 GLY
248 H248 -3.76029 -12.5045 -1.13929 H 44 GLY
249 H249 -6.73862 -6.56969 0.140911 H 46 GLY
250 H250 -6.92783 -5.59671 0.132632 H 49 GLY
251 H251 -10.9251 -5.50745 0.016273 H 49 GLY
252 H252 -11.0445 -6.49317 0.0619837 H 50 GLY
253 H253 -5.24481 -6.53914 0.273493 H 46 GLY
254 H254 -3.74418 -6.49027 0.0297977 H 51 GLY
255 H255 -10.05 -7.5 0 H 53 GLY
256 H256 -10.047 -6.5015 -0.00886651 H 50 GLY
257 H257 -3.25 -5 0 H 53 GLY
258 H258 -3.75286 -5.00247 -0.0123885 H 47 GLY
259 H259 -3.25 -8 0 H 53 GLY
260 H260 -3.75866 -7.99945 0.00201766 H 48 GLY
261 H261 -3.24549 -6.4948 -0.00598491 H 51 GLY
262 H262 -4.25 -8 0 H 53 GLY
263 H263 -6.75 -7.5 -1.15 H 53 GLY
264 H264 -4.25 -5 0 H 53 GLY
265 H265 -6.75 -4.5 -1.15 H 53 GLY
266 H266 -6.75223 -6.50783 -1.14701 H 52 GLY
267 H267 -6.75879 -5.50786 -1.15029 H 52 GLY
268 H268 -3.74271 -1.77443 1.33272 H 35 GLY
269 H269 -3.71356 -4.28021 1.30169 H 47 GLY
270 H270 -0.742833 -1.75789 1.3111 H 35 GLY
271 H271 -0.779322 -11.2627 1.32655 H 39 GLY
272 H272 -0.725576 0.744942 1.30531 H 0 GLY
273 H273 3.75976 0.647275 1.34827 H 1 GLY
@<TRIPOS>BOND
1 154 155 1
2 161 162 1
3 165 166 1
4 167 168 1
5 169 179 1
6 171 172 1
7 173 174 1
8 175 176 1
9 177 178 1
10 180 181 1
11 182 183 1
12 184 185 1
13 186 187 1
14 188 189 1
15 190 191 1
16 192 193 1
17 192 196 1
18 192 196 1
19 194 195 1
20 194 196 1
21 194 196 1
22 197 198 1
23 198 201 1
24 199 200 1
25 200 202 1
26 203 204 1
27 205 206 1
28 207 208 1
29 209 210 1
30 211 212 1
31 211 215 1
32 211 215 1
33 213 214 1
34 213 215 1
35 213 215 1
36 216 217 1
37 217 220 1
38 218 219 1
39 219 221 1
40 226 227 1
41 228 229 1
42 230 231 1
43 232 233 1
44 234 235 1
45 236 237 1
46 238 239 1
47 238 242 1
48 238 242 1
49 240 241 1
50 240 242 1
51 240 242 1
52 243 244 1
53 244 247 1
54 245 246 1
55 246 248 1
56 249 250 1
57 251 252 1
58 253 254 1
59 255 256 1
60 257 258 1
61 257 261 1
62 257 261 1
63 259 260 1
64 259 261 1
65 259 261 1
66 262 263 1
67 263 266 1
68 264 265 1
69 265 267 1
