#
#
#

#
#

@<TRIPOS>MOLECULE
Panda
151 96
SMALL
NO CHARGES


@<TRIPOS>ATOM
1 C1 0.247767 0.00443276 -0.0157821 C 0 ALA
2 C2 0.256868 -0.122939 0.723267 C 0 ALA
3 C3 0.265968 -0.25031 1.46232 C 0 ALA
4 C4 -0.752134 -0.00459021 -0.00502492 C 0 ALA
5 C5 -0.733934 -0.259333 1.47307 C 0 ALA
6 C6 2.73227 0.000961868 0.0106644 C 1 ARG
7 C7 2.74245 -0.074049 0.756834 C 1 ARG
8 C8 2.75263 -0.14906 1.503 C 1 ARG
9 C9 3.73218 0.0015505 -0.00292302 C 1 ARG
10 C10 3.75254 -0.148471 1.48942 C 1 ARG
11 C11 1.50405 1.30479 2.50092 C 2 ASN
12 C12 1.49893 1.09558 1.78071 C 2 ASN
13 C13 1.49381 0.886375 1.0605 C 2 ASN
14 C14 0.818463 1.2073 0.972077 C 2 ASN
15 C15 2.11515 1.29354 0.937809 C 2 ASN
16 C16 0.153805 1.51931 0.886168 C 2 ASN
17 C17 2.72723 1.69046 0.81816 C 2 ASN
18 C18 1.51428 1.72321 3.94135 C 2 ASN
19 H19 1.07434 0.163979 1.39425 H 3 ASP
20 H20 1.94744 0.222815 1.48106 H 4 ASP
21 H21 2.50329 1.3125 2.50827 H 5 GLY
22 C22 1.51716 3.93746 1.04665 C 6 THY
23 C23 1.50146 4.32039 2.49686 C 6 THY
24 C24 1.48577 4.70331 3.94708 C 6 THY
25 O25 -0.502864 3.30199 -0.736329 O 7 ALA
26 O26 -0.554336 3.32748 -1.73468 O 7 ALA
27 O27 3.50893 3.30312 -0.745213 O 8 ALA
28 O28 3.53447 3.31779 -1.74478 O 8 ALA
29 C29 -0.469039 4.07931 -1.71096 C 9 ALA
30 C30 0.530953 4.07765 -1.71469 C 9 ALA
31 C31 1.53094 4.07599 -1.71842 C 9 ALA
32 C32 2.53094 4.07433 -1.72215 C 9 ALA
33 C33 3.53093 4.07266 -1.72588 C 9 ALA
34 O34 1.50494 3.27101 2.50256 O 10 GLY
35 H35 -1.75 0 0 H 11 GLY
36 H36 4.75 0 0 H 12 GLY
37 H37 -0.5 2.3 -0.75 H 13 GLY
38 H38 3.5 2.3 -0.75 H 14 GLY
39 H39 2.5 4.3 2.5 H 15 GLY
40 O40 4.84243 -4.07719 1.13882 O 16 ASP
41 O41 5.72802 -4.07865 2.34949 O 16 ASP
42 C42 3.75164 -2.32065 -1.48732 C 17 ASN
43 C43 3.74837 -2.48683 0.00344499 C 17 ASN
44 C44 3.74509 -2.65301 1.49421 C 17 ASN
45 C45 3.71924 -6.21543 -1.34432 C 18 ASP
46 C46 3.75817 -5.52849 -0.0114279 C 18 ASP
47 C47 3.79711 -4.84155 1.32146 C 18 ASP
48 O48 5.74421 -3.07209 2.39975 O 19 ARG
49 O49 6.55766 -3.0494 1.81856 O 19 ARG
50 O50 7.37111 -3.0267 1.23737 O 19 ARG
51 O51 8.18456 -3.004 0.656182 O 19 ARG
52 O52 8.99801 -2.9813 0.0749907 O 19 ARG
53 C53 10.0677 -3.99791 0.0053891 C 20 ASN
54 C54 9.06998 -3.98114 0.0710203 C 20 ASN
55 C55 4.59059 -3.82594 -0.828363 C 21 ARG
56 C56 3.62099 -3.84572 0.315966 C 21 ARG
57 C57 2.6514 -3.86551 1.46029 C 21 ARG
58 O58 3.25638 -3.98746 0.00457354 O 21 ARG
59 C59 6.74487 -4.00107 -1.15133 C 22 GLY
60 C60 6.75474 -3.00112 -1.14804 C 22 GLY
61 H61 10.05 -5 0 H 23 GLY
62 O62 -2.85537 -4.50348 2.17456 O 24 ASP
63 O63 -1.68029 -4.56551 1.24432 O 24 ASP
64 C64 -0.775807 -2.23116 -1.48826 C 25 ASN
65 C65 -0.75033 -2.49491 -0.0118546 C 25 ASN
66 C66 -0.724852 -2.75866 1.46456 C 25 ASN
67 C67 -0.749788 -4.69986 -1.27164 C 26 ASP
68 C68 -0.752528 -5.50367 -0.00519147 C 26 ASP
69 C69 -0.755267 -6.30748 1.26125 C 26 ASP
70 O70 -6.04878 -2.98228 -0.0475076 O 27 ARG
71 O71 -5.24053 -3.112 0.526859 O 27 ARG
72 O72 -4.43227 -3.24173 1.10123 O 27 ARG
73 O73 -3.62402 -3.37145 1.67559 O 27 ARG
74 O74 -2.81577 -3.50117 2.24996 O 27 ARG
75 C75 -6.06115 -3.98622 -0.0596618 C 28 ASN
76 C76 -7.05925 -4.00415 -0.00077795 C 28 ASN
77 C77 -1.61241 -3.7644 -0.735572 C 29 ARG
78 C78 -0.60673 -3.98362 0.35555 C 29 ARG
79 C79 0.39895 -4.20285 1.44667 C 29 ARG
80 O80 -0.241089 -4.00138 0.0149748 O 29 ARG
81 C81 -3.75037 -3.99974 -1.14157 C 30 GLY
82 C82 -3.74211 -2.99978 -1.1404 C 30 GLY
83 H83 -7.05 -5 0 H 31 GLY
84 H84 0.247767 0.00443276 -0.0157821 H 0 ALA
85 H85 2.73227 0.000961868 0.0106644 H 1 ARG
86 H86 0.265968 -0.25031 1.46232 H 0 ALA
87 H87 1.07434 0.163979 1.39425 H 3 ASP
88 H88 2.75263 -0.14906 1.503 H 1 ARG
89 H89 1.94744 0.222815 1.48106 H 4 ASP
90 H90 1.49381 0.886375 1.0605 H 2 ASN
91 H91 1.50405 1.30479 2.50092 H 2 ASN
92 H92 2.50329 1.3125 2.50827 H 5 GLY
93 H93 1.51428 1.72321 3.94135 H 2 ASN
94 H94 1.48577 4.70331 3.94708 H 6 THY
95 H95 -0.554336 3.32748 -1.73468 H 7 ALA
96 H96 -0.469039 4.07931 -1.71096 H 9 ALA
97 H97 3.53447 3.31779 -1.74478 H 8 ALA
98 H98 3.53093 4.07266 -1.72588 H 9 ALA
99 H99 1.50146 4.32039 2.49686 H 6 THY
100 H100 1.50494 3.27101 2.50256 H 10 GLY
101 H101 -1.75 0 0 H 11 GLY
102 H102 -0.752134 -0.00459021 -0.00502492 H 0 ALA
103 H103 4.75 0 0 H 12 GLY
104 H104 3.73218 0.0015505 -0.00292302 H 1 ARG
105 H105 -0.5 2.3 -0.75 H 13 GLY
106 H106 -0.502864 3.30199 -0.736329 H 7 ALA
107 H107 3.5 2.3 -0.75 H 14 GLY
108 H108 3.50893 3.30312 -0.745213 H 8 ALA
109 H109 2.5 4.3 2.5 H 15 GLY
110 H110 5.72802 -4.07865 2.34949 H 16 ASP
111 H111 5.74421 -3.07209 2.39975 H 19 ARG
112 H112 8.99801 -2.9813 0.0749907 H 19 ARG
113 H113 9.06998 -3.98114 0.0710203 H 20 ASN
114 H114 4.84243 -4.07719 1.13882 H 16 ASP
115 H115 3.62099 -3.84572 0.315966 H 21 ARG
116 H116 10.05 -5 0 H 23 GLY
117 H117 10.0677 -3.99791 0.0053891 H 20 ASN
118 H118 3.25 -2.5 0 H 23 GLY
119 H119 3.74837 -2.48683 0.00344499 H 17 ASN
120 H120 3.25 -5.5 0 H 23 GLY
121 H121 3.75817 -5.52849 -0.0114279 H 18 ASP
122 H122 3.25638 -3.98746 0.00457354 H 21 ARG
123 H123 4.25 -5.5 0 H 23 GLY
124 H124 6.75 -5 -1.15 H 23 GLY
125 H125 4.25 -2.5 0 H 23 GLY
126 H126 6.75 -2 -1.15 H 23 GLY
127 H127 6.74487 -4.00107 -1.15133 H 22 GLY
128 H128 6.75474 -3.00112 -1.14804 H 22 GLY
129 H129 -2.85537 -4.50348 2.17456 H 24 ASP
130 H130 -2.81577 -3.50117 2.24996 H 27 ARG
131 H131 -6.04878 -2.98228 -0.0475076 H 27 ARG
132 H132 -6.06115 -3.98622 -0.0596618 H 28 ASN
133 H133 -1.68029 -4.56551 1.24432 H 24 ASP
134 H134 -0.60673 -3.98362 0.35555 H 29 ARG
135 H135 -7.05 -5 0 H 31 GLY
136 H136 -7.05925 -4.00415 -0.00077795 H 28 ASN
137 H137 -0.25 -2.5 0 H 31 GLY
138 H138 -0.75033 -2.49491 -0.0118546 H 25 ASN
139 H139 -0.25 -5.5 0 H 31 GLY
140 H140 -0.752528 -5.50367 -0.00519147 H 26 ASP
141 H141 -0.241089 -4.00138 0.0149748 H 29 ARG
142 H142 -1.25 -5.5 0 H 31 GLY
143 H143 -3.75 -5 -1.15 H 31 GLY
144 H144 -1.25 -2.5 0 H 31 GLY
145 H145 -3.75 -2 -1.15 H 31 GLY
146 H146 -3.75037 -3.99974 -1.14157 H 30 GLY
147 H147 -3.74211 -2.99978 -1.1404 H 30 GLY
148 H148 -0.733934 -0.259333 1.47307 H 0 ALA
149 H149 -0.724852 -2.75866 1.46456 H 25 ASN
150 H150 3.75254 -0.148471 1.48942 H 1 ARG
151 H151 3.74509 -2.65301 1.49421 H 17 ASN
@<TRIPOS>BOND
1 1 2 2
2 1 4 2
3 2 3 2
4 3 5 2
5 6 7 2
6 6 9 2
7 7 8 2
8 8 10 2
9 11 12 2
10 11 18 2
11 12 13 2
12 13 14 2
13 13 15 2
14 14 16 2
15 15 17 2
16 22 23 2
17 23 24 2
18 25 26 2
19 27 28 2
20 29 30 2
21 30 31 2
22 31 32 2
23 32 33 2
24 40 41 2
25 42 43 2
26 43 44 2
27 45 46 2
28 46 47 2
29 48 49 2
30 49 50 2
31 50 51 2
32 51 52 2
33 53 54 2
34 55 56 2
35 56 58 2
36 56 57 2
37 59 60 2
38 62 63 2
39 64 65 2
40 65 66 2
41 67 68 2
42 68 69 2
43 70 71 2
44 71 72 2
45 72 73 2
46 73 74 2
47 75 76 2
48 77 78 2
49 78 80 2
50 78 79 2
51 81 82 2
52 84 85 1
53 86 87 1
54 87 90 1
55 88 89 1
56 89 90 1
57 91 92 1
58 93 94 1
59 95 96 1
60 97 98 1
61 99 100 1
62 99 109 1
63 101 102 1
64 103 104 1
65 105 106 1
66 107 108 1
67 110 111 1
68 112 113 1
69 114 115 1
70 116 117 1
71 118 119 1
72 118 122 1
73 118 122 1
74 120 121 1
75 120 122 1
76 120 122 1
77 123 124 1
78 124 127 1
79 125 126 1
80 126 128 1
81 129 130 1
82 131 132 1
83 133 134 1
84 135 136 1
85 137 138 1
86 137 141 1
87 137 141 1
88 139 140 1
89 139 141 1
90 139 141 1
91 142 143 1
92 143 146 1
93 144 145 1
94 145 147 1
95 148 149 1
96 150 151 1
