#
#
#

#
#

@<TRIPOS>MOLECULE
Panda
151 8
SMALL
NO CHARGES


@<TRIPOS>ATOM
1 C1 0.246074 -0.00388756 0.00745584 C 0 GLU
2 C2 0.250699 0.384016 0.649335 C 0 GLU
3 C3 0.255324 0.77192 1.29121 C 0 GLU
4 C4 -0.753854 0.00809173 0.00742105 C 0 GLU
5 C5 -0.744604 0.7839 1.29118 C 0 GLU
6 C6 2.75712 0.0115827 -0.0221312 C 1 GLU
7 C7 2.73495 0.369772 0.636435 C 1 GLU
8 C8 2.71279 0.72796 1.295 C 1 GLU
9 C9 3.75656 0.0117882 0.0113941 C 1 GLU
10 C10 3.71223 0.728166 1.32853 C 1 GLU
11 C11 1.50037 1.29805 2.50395 C 2 GLU
12 C12 1.53326 1.58574 1.8121 C 2 GLU
13 C13 1.56615 1.87343 1.12025 C 2 GLU
14 C14 0.968802 2.30601 1.27173 C 2 GLU
15 C15 2.25755 2.13561 1.26215 C 2 GLU
16 C16 0.380125 2.72813 1.41928 C 2 GLU
17 C17 2.9378 2.38996 1.40025 C 2 GLU
18 C18 1.43458 0.722665 3.88764 C 2 GLU
19 H19 0.948486 1.25023 0.943133 H 3 GLU
20 H20 2.01176 1.13865 0.877286 H 4 GLU
21 H21 2.51053 1.29254 2.5204 H 5 GLU
22 C22 1.49251 4.91844 1.1278 C 6 GLU
23 C23 1.50049 4.31962 2.50307 C 6 GLU
24 C24 1.50846 3.72081 3.87833 C 6 GLU
25 O25 -0.501911 3.29238 -0.758699 O 7 GLU
26 O26 -0.516326 3.27079 -1.75836 O 7 GLU
27 O27 3.50661 3.30447 -0.755119 O 8 GLU
28 O28 3.52895 3.30332 -1.75487 O 8 GLU
29 C29 -0.443312 4.01014 -1.72619 C 9 GLU
30 C30 0.556609 4.02257 -1.72753 C 9 GLU
31 C31 1.55653 4.03499 -1.72888 C 9 GLU
32 C32 2.55645 4.04742 -1.73022 C 9 GLU
33 C33 3.55638 4.05984 -1.73157 C 9 GLU
34 O34 1.50463 3.27645 2.51573 O 10 GLU
35 H35 -1.75 0 0 H 11 GLU
36 H36 4.75 0 0 H 12 GLU
37 H37 -0.5 2.3 -0.75 H 13 GLU
38 H38 3.5 2.3 -0.75 H 14 GLU
39 H39 2.5 4.3 2.5 H 15 GLU
40 O40 4.52494 -3.80191 1.50196 O 16 GLU
41 O41 5.73012 -3.8326 2.39449 O 16 GLU
42 C42 3.69961 -3.24385 -1.31766 C 17 GLU
43 C43 3.74916 -2.49707 -0.0177063 C 17 GLU
44 C44 3.7987 -1.7503 1.28224 C 17 GLU
45 C45 3.7466 -6.23086 -1.31609 C 18 GLU
46 C46 3.75469 -5.50646 -0.00262477 C 18 GLU
47 C47 3.76277 -4.78206 1.31084 C 18 GLU
48 O48 5.76199 -2.83069 2.24656 O 19 GLU
49 O49 6.58604 -2.86975 1.68139 O 19 GLU
50 O50 7.41009 -2.90882 1.11622 O 19 GLU
51 O51 8.23414 -2.94788 0.551046 O 19 GLU
52 O52 9.05819 -2.98695 -0.0141246 O 19 GLU
53 C53 10.0568 -4.00543 0.00662884 C 20 GLU
54 C54 9.05683 -3.99663 0.00563278 C 20 GLU
55 C55 4.67402 -4.23783 -0.653936 C 21 GLU
56 C56 3.60369 -3.84296 0.31996 C 21 GLU
57 C57 2.53336 -3.4481 1.29386 C 21 GLU
58 O58 3.25376 -3.9983 -0.00163237 O 21 GLU
59 C59 6.74558 -4.0055 -1.15484 C 22 GLU
60 C60 6.75992 -3.00561 -1.15645 C 22 GLU
61 H61 10.05 -5 0 H 23 GLU
62 O62 -2.91987 -3.99854 2.21128 O 24 GLU
63 O63 -1.65787 -4.02358 1.4009 O 24 GLU
64 C64 -0.799088 -3.31881 -1.26646 C 25 GLU
65 C65 -0.760212 -2.51476 -0.000756264 C 25 GLU
66 C66 -0.721336 -1.71072 1.26495 C 25 GLU
67 C67 -0.733083 -6.06415 -1.37846 C 26 GLU
68 C68 -0.750453 -5.49685 0.0100235 C 26 GLU
69 C69 -0.767823 -4.92955 1.3985 C 26 GLU
70 O70 -6.10203 -3.01604 0.0213978 O 27 GLU
71 O71 -5.2767 -3.01043 0.586029 O 27 GLU
72 O72 -4.45138 -3.00482 1.15066 O 27 GLU
73 O73 -3.62605 -2.99921 1.71529 O 27 GLU
74 O74 -2.80073 -2.9936 2.27992 O 27 GLU
75 C75 -6.0499 -4.01296 0.0261196 C 28 GLU
76 C76 -7.04956 -4.00883 0.000277515 C 28 GLU
77 C77 -1.55749 -4.52694 -0.704183 C 29 GLU
78 C78 -0.612211 -3.98253 0.325415 C 29 GLU
79 C79 0.333068 -3.43813 1.35501 C 29 GLU
80 O80 -0.237523 -4.00899 -0.00459879 O 29 GLU
81 C81 -3.76075 -3.99078 -1.15164 C 30 GLU
82 C82 -3.75281 -2.99081 -1.15373 C 30 GLU
83 H83 -7.05 -5 0 H 31 GLU
84 H84 0.246074 -0.00388756 0.00745584 H 0 GLU
85 H85 2.75712 0.0115827 -0.0221312 H 1 GLU
86 H86 0.255324 0.77192 1.29121 H 0 GLU
87 H87 0.948486 1.25023 0.943133 H 3 GLU
88 H88 2.71279 0.72796 1.295 H 1 GLU
89 H89 2.01176 1.13865 0.877286 H 4 GLU
90 H90 1.56615 1.87343 1.12025 H 2 GLU
91 H91 1.50037 1.29805 2.50395 H 2 GLU
92 H92 2.51053 1.29254 2.5204 H 5 GLU
93 H93 1.43458 0.722665 3.88764 H 2 GLU
94 H94 1.50846 3.72081 3.87833 H 6 GLU
95 H95 -0.516326 3.27079 -1.75836 H 7 GLU
96 H96 -0.443312 4.01014 -1.72619 H 9 GLU
97 H97 3.52895 3.30332 -1.75487 H 8 GLU
98 H98 3.55638 4.05984 -1.73157 H 9 GLU
99 H99 1.50049 4.31962 2.50307 H 6 GLU
100 H100 1.50463 3.27645 2.51573 H 10 GLU
101 H101 -1.75 0 0 H 11 GLU
102 H102 -0.753854 0.00809173 0.00742105 H 0 GLU
103 H103 4.75 0 0 H 12 GLU
104 H104 3.75656 0.0117882 0.0113941 H 1 GLU
105 H105 -0.5 2.3 -0.75 H 13 GLU
106 H106 -0.501911 3.29238 -0.758699 H 7 GLU
107 H107 3.5 2.3 -0.75 H 14 GLU
108 H108 3.50661 3.30447 -0.755119 H 8 GLU
109 H109 2.5 4.3 2.5 H 15 GLU
110 H110 5.73012 -3.8326 2.39449 H 16 GLU
111 H111 5.76199 -2.83069 2.24656 H 19 GLU
112 H112 9.05819 -2.98695 -0.0141246 H 19 GLU
113 H113 9.05683 -3.99663 0.00563278 H 20 GLU
114 H114 4.52494 -3.80191 1.50196 H 16 GLU
115 H115 3.60369 -3.84296 0.31996 H 21 GLU
116 H116 10.05 -5 0 H 23 GLU
117 H117 10.0568 -4.00543 0.00662884 H 20 GLU
118 H118 3.25 -2.5 0 H 23 GLU
119 H119 3.74916 -2.49707 -0.0177063 H 17 GLU
120 H120 3.25 -5.5 0 H 23 GLU
121 H121 3.75469 -5.50646 -0.00262477 H 18 GLU
122 H122 3.25376 -3.9983 -0.00163237 H 21 GLU
123 H123 4.25 -5.5 0 H 23 GLU
124 H124 6.75 -5 -1.15 H 23 GLU
125 H125 4.25 -2.5 0 H 23 GLU
126 H126 6.75 -2 -1.15 H 23 GLU
127 H127 6.74558 -4.0055 -1.15484 H 22 GLU
128 H128 6.75992 -3.00561 -1.15645 H 22 GLU
129 H129 -2.91987 -3.99854 2.21128 H 24 GLU
130 H130 -2.80073 -2.9936 2.27992 H 27 GLU
131 H131 -6.10203 -3.01604 0.0213978 H 27 GLU
132 H132 -6.0499 -4.01296 0.0261196 H 28 GLU
133 H133 -1.65787 -4.02358 1.4009 H 24 GLU
134 H134 -0.612211 -3.98253 0.325415 H 29 GLU
135 H135 -7.05 -5 0 H 31 GLU
136 H136 -7.04956 -4.00883 0.000277515 H 28 GLU
137 H137 -0.25 -2.5 0 H 31 GLU
138 H138 -0.760212 -2.51476 -0.000756264 H 25 GLU
139 H139 -0.25 -5.5 0 H 31 GLU
140 H140 -0.750453 -5.49685 0.0100235 H 26 GLU
141 H141 -0.237523 -4.00899 -0.00459879 H 29 GLU
142 H142 -1.25 -5.5 0 H 31 GLU
143 H143 -3.75 -5 -1.15 H 31 GLU
144 H144 -1.25 -2.5 0 H 31 GLU
145 H145 -3.75 -2 -1.15 H 31 GLU
146 H146 -3.76075 -3.99078 -1.15164 H 30 GLU
147 H147 -3.75281 -2.99081 -1.15373 H 30 GLU
148 H148 -0.744604 0.7839 1.29118 H 0 GLU
149 H149 -0.721336 -1.71072 1.26495 H 25 GLU
150 H150 3.71223 0.728166 1.32853 H 1 GLU
151 H151 3.7987 -1.7503 1.28224 H 17 GLU
@<TRIPOS>BOND
1 86 87 4
2 87 90 4
3 88 89 4
4 89 90 4
5 93 94 4
6 99 100 4
7 148 149 4
8 150 151 4
