#
#
#

#
#

@<TRIPOS>MOLECULE
Panda
151 8
SMALL
NO CHARGES


@<TRIPOS>ATOM
1 C1 0.247767 0.00443276 -0.0157821 C 0 GLU
2 C2 0.256868 -0.122939 0.723267 C 0 GLU
3 C3 0.265968 -0.25031 1.46232 C 0 GLU
4 C4 -0.752134 -0.00459021 -0.00502492 C 0 GLU
5 C5 -0.733934 -0.259333 1.47307 C 0 GLU
6 C6 2.73227 0.000961868 0.0106644 C 1 GLU
7 C7 2.74245 -0.074049 0.756834 C 1 GLU
8 C8 2.75263 -0.14906 1.503 C 1 GLU
9 C9 3.73218 0.0015505 -0.00292302 C 1 GLU
10 C10 3.75254 -0.148471 1.48942 C 1 GLU
11 C11 1.50405 1.30479 2.50092 C 2 GLU
12 C12 1.49893 1.09558 1.78071 C 2 GLU
13 C13 1.49381 0.886375 1.0605 C 2 GLU
14 C14 0.818463 1.2073 0.972077 C 2 GLU
15 C15 2.11515 1.29354 0.937809 C 2 GLU
16 C16 0.153805 1.51931 0.886168 C 2 GLU
17 C17 2.72723 1.69046 0.81816 C 2 GLU
18 C18 1.51428 1.72321 3.94135 C 2 GLU
19 H19 1.07434 0.163979 1.39425 H 3 GLU
20 H20 1.94744 0.222815 1.48106 H 4 GLU
21 H21 2.50329 1.3125 2.50827 H 5 GLU
22 C22 1.51716 3.93746 1.04665 C 6 GLU
23 C23 1.50146 4.32039 2.49686 C 6 GLU
24 C24 1.48577 4.70331 3.94708 C 6 GLU
25 O25 -0.502864 3.30199 -0.736329 O 7 GLU
26 O26 -0.554336 3.32748 -1.73468 O 7 GLU
27 O27 3.50893 3.30312 -0.745213 O 8 GLU
28 O28 3.53447 3.31779 -1.74478 O 8 GLU
29 C29 -0.469039 4.07931 -1.71096 C 9 GLU
30 C30 0.530953 4.07765 -1.71469 C 9 GLU
31 C31 1.53094 4.07599 -1.71842 C 9 GLU
32 C32 2.53094 4.07433 -1.72215 C 9 GLU
33 C33 3.53093 4.07266 -1.72588 C 9 GLU
34 O34 1.50494 3.27101 2.50256 O 10 GLU
35 H35 -1.75 0 0 H 11 GLU
36 H36 4.75 0 0 H 12 GLU
37 H37 -0.5 2.3 -0.75 H 13 GLU
38 H38 3.5 2.3 -0.75 H 14 GLU
39 H39 2.5 4.3 2.5 H 15 GLU
40 O40 4.84243 -4.07719 1.13882 O 16 GLU
41 O41 5.72802 -4.07865 2.34949 O 16 GLU
42 C42 3.75164 -2.32065 -1.48732 C 17 GLU
43 C43 3.74837 -2.48683 0.00344499 C 17 GLU
44 C44 3.74509 -2.65301 1.49421 C 17 GLU
45 C45 3.71924 -6.21543 -1.34432 C 18 GLU
46 C46 3.75817 -5.52849 -0.0114279 C 18 GLU
47 C47 3.79711 -4.84155 1.32146 C 18 GLU
48 O48 5.74421 -3.07209 2.39975 O 19 GLU
49 O49 6.55766 -3.0494 1.81856 O 19 GLU
50 O50 7.37111 -3.0267 1.23737 O 19 GLU
51 O51 8.18456 -3.004 0.656182 O 19 GLU
52 O52 8.99801 -2.9813 0.0749907 O 19 GLU
53 C53 10.0677 -3.99791 0.0053891 C 20 GLU
54 C54 9.06998 -3.98114 0.0710203 C 20 GLU
55 C55 4.59059 -3.82594 -0.828363 C 21 GLU
56 C56 3.62099 -3.84572 0.315966 C 21 GLU
57 C57 2.6514 -3.86551 1.46029 C 21 GLU
58 O58 3.25638 -3.98746 0.00457354 O 21 GLU
59 C59 6.74487 -4.00107 -1.15133 C 22 GLU
60 C60 6.75474 -3.00112 -1.14804 C 22 GLU
61 H61 10.05 -5 0 H 23 GLU
62 O62 -2.85537 -4.50348 2.17456 O 24 GLU
63 O63 -1.68029 -4.56551 1.24432 O 24 GLU
64 C64 -0.775807 -2.23116 -1.48826 C 25 GLU
65 C65 -0.75033 -2.49491 -0.0118546 C 25 GLU
66 C66 -0.724852 -2.75866 1.46456 C 25 GLU
67 C67 -0.749788 -4.69986 -1.27164 C 26 GLU
68 C68 -0.752528 -5.50367 -0.00519147 C 26 GLU
69 C69 -0.755267 -6.30748 1.26125 C 26 GLU
70 O70 -6.04878 -2.98228 -0.0475076 O 27 GLU
71 O71 -5.24053 -3.112 0.526859 O 27 GLU
72 O72 -4.43227 -3.24173 1.10123 O 27 GLU
73 O73 -3.62402 -3.37145 1.67559 O 27 GLU
74 O74 -2.81577 -3.50117 2.24996 O 27 GLU
75 C75 -6.06115 -3.98622 -0.0596618 C 28 GLU
76 C76 -7.05925 -4.00415 -0.00077795 C 28 GLU
77 C77 -1.61241 -3.7644 -0.735572 C 29 GLU
78 C78 -0.60673 -3.98362 0.35555 C 29 GLU
79 C79 0.39895 -4.20285 1.44667 C 29 GLU
80 O80 -0.241089 -4.00138 0.0149748 O 29 GLU
81 C81 -3.75037 -3.99974 -1.14157 C 30 GLU
82 C82 -3.74211 -2.99978 -1.1404 C 30 GLU
83 H83 -7.05 -5 0 H 31 GLU
84 H84 0.247767 0.00443276 -0.0157821 H 0 GLU
85 H85 2.73227 0.000961868 0.0106644 H 1 GLU
86 H86 0.265968 -0.25031 1.46232 H 0 GLU
87 H87 1.07434 0.163979 1.39425 H 3 GLU
88 H88 2.75263 -0.14906 1.503 H 1 GLU
89 H89 1.94744 0.222815 1.48106 H 4 GLU
90 H90 1.49381 0.886375 1.0605 H 2 GLU
91 H91 1.50405 1.30479 2.50092 H 2 GLU
92 H92 2.50329 1.3125 2.50827 H 5 GLU
93 H93 1.51428 1.72321 3.94135 H 2 GLU
94 H94 1.48577 4.70331 3.94708 H 6 GLU
95 H95 -0.554336 3.32748 -1.73468 H 7 GLU
96 H96 -0.469039 4.07931 -1.71096 H 9 GLU
97 H97 3.53447 3.31779 -1.74478 H 8 GLU
98 H98 3.53093 4.07266 -1.72588 H 9 GLU
99 H99 1.50146 4.32039 2.49686 H 6 GLU
100 H100 1.50494 3.27101 2.50256 H 10 GLU
101 H101 -1.75 0 0 H 11 GLU
102 H102 -0.752134 -0.00459021 -0.00502492 H 0 GLU
103 H103 4.75 0 0 H 12 GLU
104 H104 3.73218 0.0015505 -0.00292302 H 1 GLU
105 H105 -0.5 2.3 -0.75 H 13 GLU
106 H106 -0.502864 3.30199 -0.736329 H 7 GLU
107 H107 3.5 2.3 -0.75 H 14 GLU
108 H108 3.50893 3.30312 -0.745213 H 8 GLU
109 H109 2.5 4.3 2.5 H 15 GLU
110 H110 5.72802 -4.07865 2.34949 H 16 GLU
111 H111 5.74421 -3.07209 2.39975 H 19 GLU
112 H112 8.99801 -2.9813 0.0749907 H 19 GLU
113 H113 9.06998 -3.98114 0.0710203 H 20 GLU
114 H114 4.84243 -4.07719 1.13882 H 16 GLU
115 H115 3.62099 -3.84572 0.315966 H 21 GLU
116 H116 10.05 -5 0 H 23 GLU
117 H117 10.0677 -3.99791 0.0053891 H 20 GLU
118 H118 3.25 -2.5 0 H 23 GLU
119 H119 3.74837 -2.48683 0.00344499 H 17 GLU
120 H120 3.25 -5.5 0 H 23 GLU
121 H121 3.75817 -5.52849 -0.0114279 H 18 GLU
122 H122 3.25638 -3.98746 0.00457354 H 21 GLU
123 H123 4.25 -5.5 0 H 23 GLU
124 H124 6.75 -5 -1.15 H 23 GLU
125 H125 4.25 -2.5 0 H 23 GLU
126 H126 6.75 -2 -1.15 H 23 GLU
127 H127 6.74487 -4.00107 -1.15133 H 22 GLU
128 H128 6.75474 -3.00112 -1.14804 H 22 GLU
129 H129 -2.85537 -4.50348 2.17456 H 24 GLU
130 H130 -2.81577 -3.50117 2.24996 H 27 GLU
131 H131 -6.04878 -2.98228 -0.0475076 H 27 GLU
132 H132 -6.06115 -3.98622 -0.0596618 H 28 GLU
133 H133 -1.68029 -4.56551 1.24432 H 24 GLU
134 H134 -0.60673 -3.98362 0.35555 H 29 GLU
135 H135 -7.05 -5 0 H 31 GLU
136 H136 -7.05925 -4.00415 -0.00077795 H 28 GLU
137 H137 -0.25 -2.5 0 H 31 GLU
138 H138 -0.75033 -2.49491 -0.0118546 H 25 GLU
139 H139 -0.25 -5.5 0 H 31 GLU
140 H140 -0.752528 -5.50367 -0.00519147 H 26 GLU
141 H141 -0.241089 -4.00138 0.0149748 H 29 GLU
142 H142 -1.25 -5.5 0 H 31 GLU
143 H143 -3.75 -5 -1.15 H 31 GLU
144 H144 -1.25 -2.5 0 H 31 GLU
145 H145 -3.75 -2 -1.15 H 31 GLU
146 H146 -3.75037 -3.99974 -1.14157 H 30 GLU
147 H147 -3.74211 -2.99978 -1.1404 H 30 GLU
148 H148 -0.733934 -0.259333 1.47307 H 0 GLU
149 H149 -0.724852 -2.75866 1.46456 H 25 GLU
150 H150 3.75254 -0.148471 1.48942 H 1 GLU
151 H151 3.74509 -2.65301 1.49421 H 17 GLU
@<TRIPOS>BOND
1 86 87 4
2 87 90 4
3 88 89 4
4 89 90 4
5 93 94 4
6 99 100 4
7 148 149 4
8 150 151 4
