#
#
#

#
#

@<TRIPOS>MOLECULE
Panda
151 37
SMALL
NO CHARGES


@<TRIPOS>ATOM
1 C1 0.246074 -0.00388756 0.00745584 C 0 GLY
2 C2 0.250699 0.384016 0.649335 C 0 GLY
3 C3 0.255324 0.77192 1.29121 C 0 GLY
4 C4 -0.753854 0.00809173 0.00742105 C 0 GLY
5 C5 -0.744604 0.7839 1.29118 C 0 GLY
6 C6 2.75712 0.0115827 -0.0221312 C 1 GLY
7 C7 2.73495 0.369772 0.636435 C 1 GLY
8 C8 2.71279 0.72796 1.295 C 1 GLY
9 C9 3.75656 0.0117882 0.0113941 C 1 GLY
10 C10 3.71223 0.728166 1.32853 C 1 GLY
11 C11 1.50037 1.29805 2.50395 C 2 GLY
12 C12 1.53326 1.58574 1.8121 C 2 GLY
13 C13 1.56615 1.87343 1.12025 C 2 GLY
14 C14 0.968802 2.30601 1.27173 C 2 GLY
15 C15 2.25755 2.13561 1.26215 C 2 GLY
16 C16 0.380125 2.72813 1.41928 C 2 GLY
17 C17 2.9378 2.38996 1.40025 C 2 GLY
18 C18 1.43458 0.722665 3.88764 C 2 GLY
19 H19 0.948486 1.25023 0.943133 H 3 GLY
20 H20 2.01176 1.13865 0.877286 H 4 GLY
21 H21 2.51053 1.29254 2.5204 H 5 GLY
22 C22 1.49251 4.91844 1.1278 C 6 GLY
23 C23 1.50049 4.31962 2.50307 C 6 GLY
24 C24 1.50846 3.72081 3.87833 C 6 GLY
25 O25 -0.501911 3.29238 -0.758699 O 7 GLY
26 O26 -0.516326 3.27079 -1.75836 O 7 GLY
27 O27 3.50661 3.30447 -0.755119 O 8 GLY
28 O28 3.52895 3.30332 -1.75487 O 8 GLY
29 C29 -0.443312 4.01014 -1.72619 C 9 GLY
30 C30 0.556609 4.02257 -1.72753 C 9 GLY
31 C31 1.55653 4.03499 -1.72888 C 9 GLY
32 C32 2.55645 4.04742 -1.73022 C 9 GLY
33 C33 3.55638 4.05984 -1.73157 C 9 GLY
34 O34 1.50463 3.27645 2.51573 O 10 GLY
35 H35 -1.75 0 0 H 11 GLY
36 H36 4.75 0 0 H 12 GLY
37 H37 -0.5 2.3 -0.75 H 13 GLY
38 H38 3.5 2.3 -0.75 H 14 GLY
39 H39 2.5 4.3 2.5 H 15 GLY
40 O40 4.52494 -3.80191 1.50196 O 16 GLY
41 O41 5.73012 -3.8326 2.39449 O 16 GLY
42 C42 3.69961 -3.24385 -1.31766 C 17 GLY
43 C43 3.74916 -2.49707 -0.0177063 C 17 GLY
44 C44 3.7987 -1.7503 1.28224 C 17 GLY
45 C45 3.7466 -6.23086 -1.31609 C 18 GLY
46 C46 3.75469 -5.50646 -0.00262477 C 18 GLY
47 C47 3.76277 -4.78206 1.31084 C 18 GLY
48 O48 5.76199 -2.83069 2.24656 O 19 GLY
49 O49 6.58604 -2.86975 1.68139 O 19 GLY
50 O50 7.41009 -2.90882 1.11622 O 19 GLY
51 O51 8.23414 -2.94788 0.551046 O 19 GLY
52 O52 9.05819 -2.98695 -0.0141246 O 19 GLY
53 C53 10.0568 -4.00543 0.00662884 C 20 GLY
54 C54 9.05683 -3.99663 0.00563278 C 20 GLY
55 C55 4.67402 -4.23783 -0.653936 C 21 GLY
56 C56 3.60369 -3.84296 0.31996 C 21 GLY
57 C57 2.53336 -3.4481 1.29386 C 21 GLY
58 O58 3.25376 -3.9983 -0.00163237 O 21 GLY
59 C59 6.74558 -4.0055 -1.15484 C 22 GLY
60 C60 6.75992 -3.00561 -1.15645 C 22 GLY
61 H61 10.05 -5 0 H 23 GLY
62 O62 -2.91987 -3.99854 2.21128 O 24 GLY
63 O63 -1.65787 -4.02358 1.4009 O 24 GLY
64 C64 -0.799088 -3.31881 -1.26646 C 25 GLY
65 C65 -0.760212 -2.51476 -0.000756264 C 25 GLY
66 C66 -0.721336 -1.71072 1.26495 C 25 GLY
67 C67 -0.733083 -6.06415 -1.37846 C 26 GLY
68 C68 -0.750453 -5.49685 0.0100235 C 26 GLY
69 C69 -0.767823 -4.92955 1.3985 C 26 GLY
70 O70 -6.10203 -3.01604 0.0213978 O 27 GLY
71 O71 -5.2767 -3.01043 0.586029 O 27 GLY
72 O72 -4.45138 -3.00482 1.15066 O 27 GLY
73 O73 -3.62605 -2.99921 1.71529 O 27 GLY
74 O74 -2.80073 -2.9936 2.27992 O 27 GLY
75 C75 -6.0499 -4.01296 0.0261196 C 28 GLY
76 C76 -7.04956 -4.00883 0.000277515 C 28 GLY
77 C77 -1.55749 -4.52694 -0.704183 C 29 GLY
78 C78 -0.612211 -3.98253 0.325415 C 29 GLY
79 C79 0.333068 -3.43813 1.35501 C 29 GLY
80 O80 -0.237523 -4.00899 -0.00459879 O 29 GLY
81 C81 -3.76075 -3.99078 -1.15164 C 30 GLY
82 C82 -3.75281 -2.99081 -1.15373 C 30 GLY
83 H83 -7.05 -5 0 H 31 GLY
84 H84 0.246074 -0.00388756 0.00745584 H 0 GLY
85 H85 2.75712 0.0115827 -0.0221312 H 1 GLY
86 H86 0.255324 0.77192 1.29121 H 0 GLY
87 H87 0.948486 1.25023 0.943133 H 3 GLY
88 H88 2.71279 0.72796 1.295 H 1 GLY
89 H89 2.01176 1.13865 0.877286 H 4 GLY
90 H90 1.56615 1.87343 1.12025 H 2 GLY
91 H91 1.50037 1.29805 2.50395 H 2 GLY
92 H92 2.51053 1.29254 2.5204 H 5 GLY
93 H93 1.43458 0.722665 3.88764 H 2 GLY
94 H94 1.50846 3.72081 3.87833 H 6 GLY
95 H95 -0.516326 3.27079 -1.75836 H 7 GLY
96 H96 -0.443312 4.01014 -1.72619 H 9 GLY
97 H97 3.52895 3.30332 -1.75487 H 8 GLY
98 H98 3.55638 4.05984 -1.73157 H 9 GLY
99 H99 1.50049 4.31962 2.50307 H 6 GLY
100 H100 1.50463 3.27645 2.51573 H 10 GLY
101 H101 -1.75 0 0 H 11 GLY
102 H102 -0.753854 0.00809173 0.00742105 H 0 GLY
103 H103 4.75 0 0 H 12 GLY
104 H104 3.75656 0.0117882 0.0113941 H 1 GLY
105 H105 -0.5 2.3 -0.75 H 13 GLY
106 H106 -0.501911 3.29238 -0.758699 H 7 GLY
107 H107 3.5 2.3 -0.75 H 14 GLY
108 H108 3.50661 3.30447 -0.755119 H 8 GLY
109 H109 2.5 4.3 2.5 H 15 GLY
110 H110 5.73012 -3.8326 2.39449 H 16 GLY
111 H111 5.76199 -2.83069 2.24656 H 19 GLY
112 H112 9.05819 -2.98695 -0.0141246 H 19 GLY
113 H113 9.05683 -3.99663 0.00563278 H 20 GLY
114 H114 4.52494 -3.80191 1.50196 H 16 GLY
115 H115 3.60369 -3.84296 0.31996 H 21 GLY
116 H116 10.05 -5 0 H 23 GLY
117 H117 10.0568 -4.00543 0.00662884 H 20 GLY
118 H118 3.25 -2.5 0 H 23 GLY
119 H119 3.74916 -2.49707 -0.0177063 H 17 GLY
120 H120 3.25 -5.5 0 H 23 GLY
121 H121 3.75469 -5.50646 -0.00262477 H 18 GLY
122 H122 3.25376 -3.9983 -0.00163237 H 21 GLY
123 H123 4.25 -5.5 0 H 23 GLY
124 H124 6.75 -5 -1.15 H 23 GLY
125 H125 4.25 -2.5 0 H 23 GLY
126 H126 6.75 -2 -1.15 H 23 GLY
127 H127 6.74558 -4.0055 -1.15484 H 22 GLY
128 H128 6.75992 -3.00561 -1.15645 H 22 GLY
129 H129 -2.91987 -3.99854 2.21128 H 24 GLY
130 H130 -2.80073 -2.9936 2.27992 H 27 GLY
131 H131 -6.10203 -3.01604 0.0213978 H 27 GLY
132 H132 -6.0499 -4.01296 0.0261196 H 28 GLY
133 H133 -1.65787 -4.02358 1.4009 H 24 GLY
134 H134 -0.612211 -3.98253 0.325415 H 29 GLY
135 H135 -7.05 -5 0 H 31 GLY
136 H136 -7.04956 -4.00883 0.000277515 H 28 GLY
137 H137 -0.25 -2.5 0 H 31 GLY
138 H138 -0.760212 -2.51476 -0.000756264 H 25 GLY
139 H139 -0.25 -5.5 0 H 31 GLY
140 H140 -0.750453 -5.49685 0.0100235 H 26 GLY
141 H141 -0.237523 -4.00899 -0.00459879 H 29 GLY
142 H142 -1.25 -5.5 0 H 31 GLY
143 H143 -3.75 -5 -1.15 H 31 GLY
144 H144 -1.25 -2.5 0 H 31 GLY
145 H145 -3.75 -2 -1.15 H 31 GLY
146 H146 -3.76075 -3.99078 -1.15164 H 30 GLY
147 H147 -3.75281 -2.99081 -1.15373 H 30 GLY
148 H148 -0.744604 0.7839 1.29118 H 0 GLY
149 H149 -0.721336 -1.71072 1.26495 H 25 GLY
150 H150 3.71223 0.728166 1.32853 H 1 GLY
151 H151 3.7987 -1.7503 1.28224 H 17 GLY
@<TRIPOS>BOND
1 84 85 1
2 91 92 1
3 95 96 1
4 97 98 1
5 99 109 1
6 101 102 1
7 103 104 1
8 105 106 1
9 107 108 1
10 110 111 1
11 112 113 1
12 114 115 1
13 116 117 1
14 118 119 1
15 118 122 1
16 118 122 1
17 120 121 1
18 120 122 1
19 120 122 1
20 123 124 1
21 124 127 1
22 125 126 1
23 126 128 1
24 129 130 1
25 131 132 1
26 133 134 1
27 135 136 1
28 137 138 1
29 137 141 1
30 137 141 1
31 139 140 1
32 139 141 1
33 139 141 1
34 142 143 1
35 143 146 1
36 144 145 1
37 145 147 1
