#
#
#

#
#

@<TRIPOS>MOLECULE
Panda
151 8
SMALL
NO CHARGES


@<TRIPOS>ATOM
1 C1 0.255858 0.0198267 0.0101779 C 0 GLU
2 C2 0.254473 -0.0505286 0.756869 C 0 GLU
3 C3 0.253088 -0.120884 1.50356 C 0 GLU
4 C4 -0.743912 -0.00129345 0.00633363 C 0 GLU
5 C5 -0.746682 -0.142004 1.49972 C 0 GLU
6 C6 2.75695 -0.00365141 -0.00559888 C 1 GLU
7 C7 2.74404 -0.104186 0.73752 C 1 GLU
8 C8 2.73112 -0.204721 1.48064 C 1 GLU
9 C9 3.75681 -0.00771611 0.0112282 C 1 GLU
10 C10 3.73097 -0.208786 1.49747 C 1 GLU
11 C11 1.49172 1.312 2.52134 C 2 GLU
12 C12 1.4683 1.13187 1.79367 C 2 GLU
13 C13 1.44487 0.951745 1.06599 C 2 GLU
14 C14 0.81366 1.35446 0.986629 C 2 GLU
15 C15 2.1116 1.28569 0.961864 C 2 GLU
16 C16 0.191967 1.74695 0.909486 C 2 GLU
17 C17 2.76789 1.61048 0.860337 C 2 GLU
18 C18 1.53858 1.67226 3.97668 C 2 GLU
19 H19 1.0949 0.205738 1.41612 H 3 GLU
20 H20 1.96803 0.302443 1.42167 H 4 GLU
21 H21 2.49312 1.28257 2.49097 H 5 GLU
22 C22 1.51873 3.98776 1.0421 C 6 GLU
23 C23 1.49498 4.32474 2.50357 C 6 GLU
24 C24 1.47123 4.66172 3.96503 C 6 GLU
25 O25 -0.499177 3.309 -0.759313 O 7 GLU
26 O26 -0.538182 3.2816 -1.75818 O 7 GLU
27 O27 3.48972 3.30393 -0.752328 O 8 GLU
28 O28 3.45735 3.28837 -1.75168 O 8 GLU
29 C29 -0.523407 4.02251 -1.82663 C 9 GLU
30 C30 0.476567 4.0205 -1.83349 C 9 GLU
31 C31 1.47654 4.01849 -1.84036 C 9 GLU
32 C32 2.47652 4.01648 -1.84722 C 9 GLU
33 C33 3.47649 4.01447 -1.85408 C 9 GLU
34 O34 1.49607 3.27106 2.50575 O 10 GLU
35 H35 -1.75 0 0 H 11 GLU
36 H36 4.75 0 0 H 12 GLU
37 H37 -0.5 2.3 -0.75 H 13 GLU
38 H38 3.5 2.3 -0.75 H 14 GLU
39 H39 2.5 4.3 2.5 H 15 GLU
40 O40 4.71416 -4.43241 1.20281 O 16 GLU
41 O41 5.88813 -4.48028 2.13528 O 16 GLU
42 C42 3.7574 -2.28974 -1.48202 C 17 GLU
43 C43 3.74843 -2.49176 0.00428223 C 17 GLU
44 C44 3.73947 -2.69378 1.49059 C 17 GLU
45 C45 3.71105 -4.54819 -1.18785 C 18 GLU
46 C46 3.74868 -5.48781 -0.0192192 C 18 GLU
47 C47 3.78631 -6.42744 1.14941 C 18 GLU
48 O48 5.83244 -3.48791 2.22546 O 19 GLU
49 O49 6.61919 -3.36121 1.62133 O 19 GLU
50 O50 7.40594 -3.23451 1.0172 O 19 GLU
51 O51 8.19269 -3.10781 0.413074 O 19 GLU
52 O52 8.97944 -2.98111 -0.191055 O 19 GLU
53 C53 10.0485 -3.99666 0.0100795 C 20 GLU
54 C54 9.0629 -3.98768 -0.158526 C 20 GLU
55 C55 4.57821 -3.52718 -0.747893 C 21 GLU
56 C56 3.60994 -3.89498 0.337092 C 21 GLU
57 C57 2.64168 -4.26278 1.42208 C 21 GLU
58 O58 3.26032 -3.99057 -0.0073253 O 21 GLU
59 C59 6.74922 -4.00487 -1.1543 C 22 GLU
60 C60 6.75754 -3.00493 -1.16128 C 22 GLU
61 H61 10.05 -5 0 H 23 GLU
62 O62 -2.85341 -4.05362 2.32255 O 24 GLU
63 O63 -1.64557 -4.02063 1.43371 O 24 GLU
64 C64 -0.757793 -2.32242 -1.48255 C 25 GLU
65 C65 -0.755819 -2.48227 0.00890205 C 25 GLU
66 C66 -0.753846 -2.64213 1.50036 C 25 GLU
67 C67 -0.731202 -4.60636 -1.19804 C 26 GLU
68 C68 -0.738173 -5.50325 0.0042589 C 26 GLU
69 C69 -0.745145 -6.40014 1.20656 C 26 GLU
70 O70 -6.0418 -3.01003 0.127998 O 27 GLU
71 O71 -5.23476 -3.02319 0.718343 O 27 GLU
72 O72 -4.42771 -3.03636 1.30869 O 27 GLU
73 O73 -3.62067 -3.04952 1.89903 O 27 GLU
74 O74 -2.81363 -3.06269 2.48938 O 27 GLU
75 C75 -6.04754 -3.99973 0.0313623 C 28 GLU
76 C76 -7.04714 -3.99498 0.00350044 C 28 GLU
77 C77 -1.66516 -3.66493 -0.624684 C 29 GLU
78 C78 -0.579501 -3.95435 0.369089 C 29 GLU
79 C79 0.506155 -4.24378 1.36286 C 29 GLU
80 O80 -0.250049 -4.00031 -0.00420678 O 29 GLU
81 C81 -3.7399 -3.99649 -1.14606 C 30 GLU
82 C82 -3.75486 -2.99661 -1.1477 C 30 GLU
83 H83 -7.05 -5 0 H 31 GLU
84 H84 0.255858 0.0198267 0.0101779 H 0 GLU
85 H85 2.75695 -0.00365141 -0.00559888 H 1 GLU
86 H86 0.253088 -0.120884 1.50356 H 0 GLU
87 H87 1.0949 0.205738 1.41612 H 3 GLU
88 H88 2.73112 -0.204721 1.48064 H 1 GLU
89 H89 1.96803 0.302443 1.42167 H 4 GLU
90 H90 1.44487 0.951745 1.06599 H 2 GLU
91 H91 1.49172 1.312 2.52134 H 2 GLU
92 H92 2.49312 1.28257 2.49097 H 5 GLU
93 H93 1.53858 1.67226 3.97668 H 2 GLU
94 H94 1.47123 4.66172 3.96503 H 6 GLU
95 H95 -0.538182 3.2816 -1.75818 H 7 GLU
96 H96 -0.523407 4.02251 -1.82663 H 9 GLU
97 H97 3.45735 3.28837 -1.75168 H 8 GLU
98 H98 3.47649 4.01447 -1.85408 H 9 GLU
99 H99 1.49498 4.32474 2.50357 H 6 GLU
100 H100 1.49607 3.27106 2.50575 H 10 GLU
101 H101 -1.75 0 0 H 11 GLU
102 H102 -0.743912 -0.00129345 0.00633363 H 0 GLU
103 H103 4.75 0 0 H 12 GLU
104 H104 3.75681 -0.00771611 0.0112282 H 1 GLU
105 H105 -0.5 2.3 -0.75 H 13 GLU
106 H106 -0.499177 3.309 -0.759313 H 7 GLU
107 H107 3.5 2.3 -0.75 H 14 GLU
108 H108 3.48972 3.30393 -0.752328 H 8 GLU
109 H109 2.5 4.3 2.5 H 15 GLU
110 H110 5.88813 -4.48028 2.13528 H 16 GLU
111 H111 5.83244 -3.48791 2.22546 H 19 GLU
112 H112 8.97944 -2.98111 -0.191055 H 19 GLU
113 H113 9.0629 -3.98768 -0.158526 H 20 GLU
114 H114 4.71416 -4.43241 1.20281 H 16 GLU
115 H115 3.60994 -3.89498 0.337092 H 21 GLU
116 H116 10.05 -5 0 H 23 GLU
117 H117 10.0485 -3.99666 0.0100795 H 20 GLU
118 H118 3.25 -2.5 0 H 23 GLU
119 H119 3.74843 -2.49176 0.00428223 H 17 GLU
120 H120 3.25 -5.5 0 H 23 GLU
121 H121 3.74868 -5.48781 -0.0192192 H 18 GLU
122 H122 3.26032 -3.99057 -0.0073253 H 21 GLU
123 H123 4.25 -5.5 0 H 23 GLU
124 H124 6.75 -5 -1.15 H 23 GLU
125 H125 4.25 -2.5 0 H 23 GLU
126 H126 6.75 -2 -1.15 H 23 GLU
127 H127 6.74922 -4.00487 -1.1543 H 22 GLU
128 H128 6.75754 -3.00493 -1.16128 H 22 GLU
129 H129 -2.85341 -4.05362 2.32255 H 24 GLU
130 H130 -2.81363 -3.06269 2.48938 H 27 GLU
131 H131 -6.0418 -3.01003 0.127998 H 27 GLU
132 H132 -6.04754 -3.99973 0.0313623 H 28 GLU
133 H133 -1.64557 -4.02063 1.43371 H 24 GLU
134 H134 -0.579501 -3.95435 0.369089 H 29 GLU
135 H135 -7.05 -5 0 H 31 GLU
136 H136 -7.04714 -3.99498 0.00350044 H 28 GLU
137 H137 -0.25 -2.5 0 H 31 GLU
138 H138 -0.755819 -2.48227 0.00890205 H 25 GLU
139 H139 -0.25 -5.5 0 H 31 GLU
140 H140 -0.738173 -5.50325 0.0042589 H 26 GLU
141 H141 -0.250049 -4.00031 -0.00420678 H 29 GLU
142 H142 -1.25 -5.5 0 H 31 GLU
143 H143 -3.75 -5 -1.15 H 31 GLU
144 H144 -1.25 -2.5 0 H 31 GLU
145 H145 -3.75 -2 -1.15 H 31 GLU
146 H146 -3.7399 -3.99649 -1.14606 H 30 GLU
147 H147 -3.75486 -2.99661 -1.1477 H 30 GLU
148 H148 -0.746682 -0.142004 1.49972 H 0 GLU
149 H149 -0.753846 -2.64213 1.50036 H 25 GLU
150 H150 3.73097 -0.208786 1.49747 H 1 GLU
151 H151 3.73947 -2.69378 1.49059 H 17 GLU
@<TRIPOS>BOND
1 86 87 4
2 87 90 4
3 88 89 4
4 89 90 4
5 93 94 4
6 99 100 4
7 148 149 4
8 150 151 4
