#
#
#

#
#

@<TRIPOS>MOLECULE
Panda
151 51
SMALL
NO CHARGES


@<TRIPOS>ATOM
1 C1 0.246074 -0.00388756 0.00745584 C 0 ALA
2 C2 0.250699 0.384016 0.649335 C 0 ALA
3 C3 0.255324 0.77192 1.29121 C 0 ALA
4 C4 -0.753854 0.00809173 0.00742105 C 0 ALA
5 C5 -0.744604 0.7839 1.29118 C 0 ALA
6 C6 2.75712 0.0115827 -0.0221312 C 1 ARG
7 C7 2.73495 0.369772 0.636435 C 1 ARG
8 C8 2.71279 0.72796 1.295 C 1 ARG
9 C9 3.75656 0.0117882 0.0113941 C 1 ARG
10 C10 3.71223 0.728166 1.32853 C 1 ARG
11 C11 1.50037 1.29805 2.50395 C 2 ASN
12 C12 1.53326 1.58574 1.8121 C 2 ASN
13 C13 1.56615 1.87343 1.12025 C 2 ASN
14 C14 0.968802 2.30601 1.27173 C 2 ASN
15 C15 2.25755 2.13561 1.26215 C 2 ASN
16 C16 0.380125 2.72813 1.41928 C 2 ASN
17 C17 2.9378 2.38996 1.40025 C 2 ASN
18 C18 1.43458 0.722665 3.88764 C 2 ASN
19 H19 0.948486 1.25023 0.943133 H 3 ASP
20 H20 2.01176 1.13865 0.877286 H 4 ASP
21 H21 2.51053 1.29254 2.5204 H 5 GLY
22 C22 1.49251 4.91844 1.1278 C 6 THY
23 C23 1.50049 4.31962 2.50307 C 6 THY
24 C24 1.50846 3.72081 3.87833 C 6 THY
25 O25 -0.501911 3.29238 -0.758699 O 7 ALA
26 O26 -0.516326 3.27079 -1.75836 O 7 ALA
27 O27 3.50661 3.30447 -0.755119 O 8 ALA
28 O28 3.52895 3.30332 -1.75487 O 8 ALA
29 C29 -0.443312 4.01014 -1.72619 C 9 ALA
30 C30 0.556609 4.02257 -1.72753 C 9 ALA
31 C31 1.55653 4.03499 -1.72888 C 9 ALA
32 C32 2.55645 4.04742 -1.73022 C 9 ALA
33 C33 3.55638 4.05984 -1.73157 C 9 ALA
34 O34 1.50463 3.27645 2.51573 O 10 GLY
35 H35 -1.75 0 0 H 11 GLY
36 H36 4.75 0 0 H 12 GLY
37 H37 -0.5 2.3 -0.75 H 13 GLY
38 H38 3.5 2.3 -0.75 H 14 GLY
39 H39 2.5 4.3 2.5 H 15 GLY
40 O40 4.52494 -3.80191 1.50196 O 16 ASP
41 O41 5.73012 -3.8326 2.39449 O 16 ASP
42 C42 3.69961 -3.24385 -1.31766 C 17 ASN
43 C43 3.74916 -2.49707 -0.0177063 C 17 ASN
44 C44 3.7987 -1.7503 1.28224 C 17 ASN
45 C45 3.7466 -6.23086 -1.31609 C 18 ASP
46 C46 3.75469 -5.50646 -0.00262477 C 18 ASP
47 C47 3.76277 -4.78206 1.31084 C 18 ASP
48 O48 5.76199 -2.83069 2.24656 O 19 ARG
49 O49 6.58604 -2.86975 1.68139 O 19 ARG
50 O50 7.41009 -2.90882 1.11622 O 19 ARG
51 O51 8.23414 -2.94788 0.551046 O 19 ARG
52 O52 9.05819 -2.98695 -0.0141246 O 19 ARG
53 C53 10.0568 -4.00543 0.00662884 C 20 ASN
54 C54 9.05683 -3.99663 0.00563278 C 20 ASN
55 C55 4.67402 -4.23783 -0.653936 C 21 ARG
56 C56 3.60369 -3.84296 0.31996 C 21 ARG
57 C57 2.53336 -3.4481 1.29386 C 21 ARG
58 O58 3.25376 -3.9983 -0.00163237 O 21 ARG
59 C59 6.74558 -4.0055 -1.15484 C 22 GLY
60 C60 6.75992 -3.00561 -1.15645 C 22 GLY
61 H61 10.05 -5 0 H 23 GLY
62 O62 -2.91987 -3.99854 2.21128 O 24 ASP
63 O63 -1.65787 -4.02358 1.4009 O 24 ASP
64 C64 -0.799088 -3.31881 -1.26646 C 25 ASN
65 C65 -0.760212 -2.51476 -0.000756264 C 25 ASN
66 C66 -0.721336 -1.71072 1.26495 C 25 ASN
67 C67 -0.733083 -6.06415 -1.37846 C 26 ASP
68 C68 -0.750453 -5.49685 0.0100235 C 26 ASP
69 C69 -0.767823 -4.92955 1.3985 C 26 ASP
70 O70 -6.10203 -3.01604 0.0213978 O 27 ARG
71 O71 -5.2767 -3.01043 0.586029 O 27 ARG
72 O72 -4.45138 -3.00482 1.15066 O 27 ARG
73 O73 -3.62605 -2.99921 1.71529 O 27 ARG
74 O74 -2.80073 -2.9936 2.27992 O 27 ARG
75 C75 -6.0499 -4.01296 0.0261196 C 28 ASN
76 C76 -7.04956 -4.00883 0.000277515 C 28 ASN
77 C77 -1.55749 -4.52694 -0.704183 C 29 ARG
78 C78 -0.612211 -3.98253 0.325415 C 29 ARG
79 C79 0.333068 -3.43813 1.35501 C 29 ARG
80 O80 -0.237523 -4.00899 -0.00459879 O 29 ARG
81 C81 -3.76075 -3.99078 -1.15164 C 30 GLY
82 C82 -3.75281 -2.99081 -1.15373 C 30 GLY
83 H83 -7.05 -5 0 H 31 GLY
84 H84 0.246074 -0.00388756 0.00745584 H 0 ALA
85 H85 2.75712 0.0115827 -0.0221312 H 1 ARG
86 H86 0.255324 0.77192 1.29121 H 0 ALA
87 H87 0.948486 1.25023 0.943133 H 3 ASP
88 H88 2.71279 0.72796 1.295 H 1 ARG
89 H89 2.01176 1.13865 0.877286 H 4 ASP
90 H90 1.56615 1.87343 1.12025 H 2 ASN
91 H91 1.50037 1.29805 2.50395 H 2 ASN
92 H92 2.51053 1.29254 2.5204 H 5 GLY
93 H93 1.43458 0.722665 3.88764 H 2 ASN
94 H94 1.50846 3.72081 3.87833 H 6 THY
95 H95 -0.516326 3.27079 -1.75836 H 7 ALA
96 H96 -0.443312 4.01014 -1.72619 H 9 ALA
97 H97 3.52895 3.30332 -1.75487 H 8 ALA
98 H98 3.55638 4.05984 -1.73157 H 9 ALA
99 H99 1.50049 4.31962 2.50307 H 6 THY
100 H100 1.50463 3.27645 2.51573 H 10 GLY
101 H101 -1.75 0 0 H 11 GLY
102 H102 -0.753854 0.00809173 0.00742105 H 0 ALA
103 H103 4.75 0 0 H 12 GLY
104 H104 3.75656 0.0117882 0.0113941 H 1 ARG
105 H105 -0.5 2.3 -0.75 H 13 GLY
106 H106 -0.501911 3.29238 -0.758699 H 7 ALA
107 H107 3.5 2.3 -0.75 H 14 GLY
108 H108 3.50661 3.30447 -0.755119 H 8 ALA
109 H109 2.5 4.3 2.5 H 15 GLY
110 H110 5.73012 -3.8326 2.39449 H 16 ASP
111 H111 5.76199 -2.83069 2.24656 H 19 ARG
112 H112 9.05819 -2.98695 -0.0141246 H 19 ARG
113 H113 9.05683 -3.99663 0.00563278 H 20 ASN
114 H114 4.52494 -3.80191 1.50196 H 16 ASP
115 H115 3.60369 -3.84296 0.31996 H 21 ARG
116 H116 10.05 -5 0 H 23 GLY
117 H117 10.0568 -4.00543 0.00662884 H 20 ASN
118 H118 3.25 -2.5 0 H 23 GLY
119 H119 3.74916 -2.49707 -0.0177063 H 17 ASN
120 H120 3.25 -5.5 0 H 23 GLY
121 H121 3.75469 -5.50646 -0.00262477 H 18 ASP
122 H122 3.25376 -3.9983 -0.00163237 H 21 ARG
123 H123 4.25 -5.5 0 H 23 GLY
124 H124 6.75 -5 -1.15 H 23 GLY
125 H125 4.25 -2.5 0 H 23 GLY
126 H126 6.75 -2 -1.15 H 23 GLY
127 H127 6.74558 -4.0055 -1.15484 H 22 GLY
128 H128 6.75992 -3.00561 -1.15645 H 22 GLY
129 H129 -2.91987 -3.99854 2.21128 H 24 ASP
130 H130 -2.80073 -2.9936 2.27992 H 27 ARG
131 H131 -6.10203 -3.01604 0.0213978 H 27 ARG
132 H132 -6.0499 -4.01296 0.0261196 H 28 ASN
133 H133 -1.65787 -4.02358 1.4009 H 24 ASP
134 H134 -0.612211 -3.98253 0.325415 H 29 ARG
135 H135 -7.05 -5 0 H 31 GLY
136 H136 -7.04956 -4.00883 0.000277515 H 28 ASN
137 H137 -0.25 -2.5 0 H 31 GLY
138 H138 -0.760212 -2.51476 -0.000756264 H 25 ASN
139 H139 -0.25 -5.5 0 H 31 GLY
140 H140 -0.750453 -5.49685 0.0100235 H 26 ASP
141 H141 -0.237523 -4.00899 -0.00459879 H 29 ARG
142 H142 -1.25 -5.5 0 H 31 GLY
143 H143 -3.75 -5 -1.15 H 31 GLY
144 H144 -1.25 -2.5 0 H 31 GLY
145 H145 -3.75 -2 -1.15 H 31 GLY
146 H146 -3.76075 -3.99078 -1.15164 H 30 GLY
147 H147 -3.75281 -2.99081 -1.15373 H 30 GLY
148 H148 -0.744604 0.7839 1.29118 H 0 ALA
149 H149 -0.721336 -1.71072 1.26495 H 25 ASN
150 H150 3.71223 0.728166 1.32853 H 1 ARG
151 H151 3.7987 -1.7503 1.28224 H 17 ASN
@<TRIPOS>BOND
1 1 2 2
2 1 4 2
3 2 3 2
4 3 5 2
5 6 7 2
6 6 9 2
7 7 8 2
8 8 10 2
9 11 12 2
10 11 18 2
11 12 13 2
12 13 14 2
13 13 15 2
14 14 16 2
15 15 17 2
16 22 23 2
17 23 24 2
18 25 26 2
19 27 28 2
20 29 30 2
21 30 31 2
22 31 32 2
23 32 33 2
24 40 41 2
25 42 43 2
26 43 44 2
27 45 46 2
28 46 47 2
29 48 49 2
30 49 50 2
31 50 51 2
32 51 52 2
33 53 54 2
34 55 56 2
35 56 58 2
36 56 57 2
37 59 60 2
38 62 63 2
39 64 65 2
40 65 66 2
41 67 68 2
42 68 69 2
43 70 71 2
44 71 72 2
45 72 73 2
46 73 74 2
47 75 76 2
48 77 78 2
49 78 80 2
50 78 79 2
51 81 82 2
