#
#
#

#
#

@<TRIPOS>MOLECULE
Panda
759 282
SMALL
NO CHARGES


@<TRIPOS>ATOM
1 C1 0.246298 -0.013547 -0.00320791 C 0 ALA
2 C2 0.240431 -0.162353 0.731858 C 0 ALA
3 C3 0.234563 -0.311159 1.46692 C 0 ALA
4 C4 -0.753669 -0.00978436 -0.010428 C 0 ALA
5 C5 -0.765403 -0.307397 1.4597 C 0 ALA
6 C6 2.74684 0.00267707 0.0110219 C 1 ARG
7 C7 2.74115 0.19553 0.735781 C 1 ARG
8 C8 2.73546 0.388382 1.46054 C 1 ARG
9 C9 3.74674 0.0155662 0.0154376 C 1 ARG
10 C10 3.73537 0.401271 1.46496 C 1 ARG
11 C11 1.48517 1.29967 2.5131 C 2 ASN
12 C12 1.41758 1.14033 1.78334 C 2 ASN
13 C13 1.35 0.980994 1.05359 C 2 ASN
14 C14 0.635299 1.21741 1.06816 C 2 ASN
15 C15 1.89836 1.47215 0.895563 C 2 ASN
16 C16 -0.0674975 1.44621 1.08329 C 2 ASN
17 C17 2.43919 1.95177 0.740755 C 2 ASN
18 C18 1.62033 1.61834 3.97261 C 2 ASN
19 H19 0.944708 0.225351 1.35024 H 3 ASP
20 H20 1.85005 0.2731 1.35511 H 4 ASP
21 H21 2.49147 1.28326 2.49495 H 5 GLY
22 C22 1.49489 4.01947 1.03031 C 6 THY
23 C23 1.49138 4.31806 2.50029 C 6 THY
24 C24 1.48788 4.61664 3.97027 C 6 THY
25 O25 -0.491645 3.30116 -1.09708 O 7 ALA
26 O26 -0.398219 3.30581 -2.09269 O 7 ALA
27 O27 3.50009 3.29636 -1.0897 O 8 ALA
28 O28 3.52822 3.28901 -2.08927 O 8 ALA
29 O29 -0.414643 4.05084 -2.12341 O 9 ALA
30 O30 0.585339 4.04543 -2.12602 O 9 ALA
31 O31 1.58532 4.04002 -2.12863 O 9 ALA
32 O32 2.5853 4.03461 -2.13125 O 9 ALA
33 O33 3.58529 4.0292 -2.13386 O 9 ALA
34 O34 -0.411927 4.55081 -2.11899 O 9 ALA
35 O35 0.588055 4.5454 -2.12161 O 9 ALA
36 O36 1.58804 4.53999 -2.12422 O 9 ALA
37 O37 2.58802 4.53459 -2.12683 O 9 ALA
38 O38 3.588 4.52918 -2.12945 O 9 ALA
39 O39 -0.412002 4.2964 -1.62122 O 9 ALA
40 O40 0.58798 4.29099 -1.62383 O 9 ALA
41 O41 1.58796 4.28559 -1.62645 O 9 ALA
42 O42 2.58795 4.28018 -1.62906 O 9 ALA
43 O43 3.58793 4.27477 -1.63168 O 9 ALA
44 O44 1.51138 3.27253 2.50176 O 10 GLY
45 H45 -1.75 0 0 H 11 GLY
46 H46 4.75 0 0 H 12 GLY
47 H47 -0.5 2.3 -1.1 H 13 GLY
48 H48 3.5 2.3 -1.1 H 14 GLY
49 H49 2.5 4.3 2.5 H 15 GLY
50 C50 3.76186 -2.90343 -1.46151 C 16 ASP
51 C51 3.7597 -2.4962 -0.0178455 C 16 ASP
52 C52 3.75754 -2.08898 1.42582 C 16 ASP
53 C53 6.76184 -2.89269 -1.46004 C 16 ASP
54 C54 6.75968 -2.48547 -0.016382 C 16 ASP
55 C55 6.75752 -2.07824 1.42728 C 16 ASP
56 H56 2.75 -2.5 0 H 17 GLY
57 H57 7.75 -2.5 0 H 18 GLY
58 O58 4.60914 -12.9929 1.38489 O 19 ASP
59 O59 5.8444 -12.9802 2.23576 O 19 ASP
60 C60 3.74263 -12.3752 -1.45932 C 20 ASN
61 C61 3.75799 -11.9824 -0.0117503 C 20 ASN
62 C62 3.77335 -11.5896 1.43582 C 20 ASN
63 C63 3.72899 -14.2044 -1.28034 C 21 ASP
64 C64 3.74033 -15.0039 -0.0111803 C 21 ASP
65 C65 3.75167 -15.8033 1.25798 C 21 ASP
66 O66 6.04087 -12.0143 2.13339 O 22 ARG
67 O67 6.99889 -12.1322 1.87204 O 22 ARG
68 O68 7.95691 -12.2501 1.61068 O 22 ARG
69 O69 8.91493 -12.368 1.34933 O 22 ARG
70 O70 9.87294 -12.4859 1.08797 O 22 ARG
71 C71 10.0427 -13.4983 0.00256336 C 23 ASN
72 C72 9.90631 -13.4962 0.993223 C 23 ASN
73 C73 4.6693 -13.2783 -0.678041 C 24 ARG
74 C74 3.58928 -13.4003 0.355729 C 24 ARG
75 C75 2.50927 -13.5223 1.3895 C 24 ARG
76 O76 3.25782 -13.5068 -0.00313914 O 24 ARG
77 C77 6.75471 -13.4949 -1.14267 C 25 GLY
78 C78 6.74247 -12.4953 -1.17032 C 25 GLY
79 H79 10.05 -14.5 0 H 26 GLY
80 O80 8.04826 -6.29273 0.840635 O 27 ASP
81 O81 9.4099 -6.28265 1.46979 O 27 ASP
82 C82 6.76254 -5.40308 -1.44192 C 28 ASN
83 C83 6.75245 -4.99178 0.000553874 C 28 ASN
84 C84 6.74236 -4.58047 1.44303 C 28 ASN
85 C85 6.73939 -8.62686 -1.36318 C 29 ASP
86 C86 6.74459 -7.99454 -0.0029776 C 29 ASP
87 C87 6.74979 -7.36222 1.35722 C 29 ASP
88 O88 9.59533 -5.33815 1.24896 O 30 ARG
89 O89 10.4168 -5.37915 0.680122 O 30 ARG
90 O90 11.2382 -5.42016 0.111284 O 30 ARG
91 O91 12.0596 -5.46116 -0.457554 O 30 ARG
92 O92 12.881 -5.50217 -1.02639 O 30 ARG
93 C93 13.0506 -6.50215 -0.00271109 C 31 ASN
94 C94 12.9422 -6.49041 -0.996756 C 31 ASN
95 C95 7.33441 -6.93011 -1.04559 C 32 ARG
96 C96 6.69407 -6.43026 0.215408 C 32 ARG
97 C97 6.05373 -5.9304 1.4764 C 32 ARG
98 O98 6.24217 -6.49335 0.0109399 O 32 ARG
99 C99 9.76043 -6.4955 -1.15444 C 33 GLY
100 C100 9.76209 -5.49551 -1.15259 C 33 GLY
101 H101 13.05 -7.5 0 H 34 GLY
102 C102 -3.75189 -2.20753 -1.47215 C 35 ASP
103 C103 -3.75306 -2.50485 -0.00191367 C 35 ASP
104 C104 -3.75423 -2.80217 1.46832 C 35 ASP
105 C105 -0.751896 -2.20248 -1.46874 C 35 ASP
106 C106 -0.753067 -2.4998 0.00149704 C 35 ASP
107 C107 -0.754238 -2.79712 1.47173 C 35 ASP
108 H108 -4.75 -2.5 0 H 36 GLY
109 H109 0.25 -2.5 0 H 37 GLY
110 O110 -3.5571 -13.657 1.05569 O 38 ASP
111 O111 -2.07639 -13.6097 0.820605 O 38 ASP
112 C112 -0.74079 -11.6802 -1.45782 C 39 ASN
113 C113 -0.754989 -11.9941 0.00888261 C 39 ASN
114 C114 -0.769189 -12.3081 1.47559 C 39 ASN
115 C115 -0.767076 -14.2652 -1.31558 C 40 ASP
116 C116 -0.737516 -15.0048 -0.0109413 C 40 ASP
117 C117 -0.707956 -15.7444 1.2937 C 40 ASP
118 O118 -6.9257 -12.4947 -0.99604 O 41 ARG
119 O119 -6.0685 -12.5346 -0.482615 O 41 ARG
120 O120 -5.21129 -12.5745 0.0308104 O 41 ARG
121 O121 -4.35408 -12.6144 0.544235 O 41 ARG
122 O122 -3.49688 -12.6542 1.05766 O 41 ARG
123 C123 -6.98563 -13.4952 -1.01074 C 42 ASN
124 C124 -7.04236 -13.4958 -0.0123519 C 42 ASN
125 C125 -1.26006 -13.0016 -1.10786 C 43 ARG
126 C126 -0.70948 -13.4988 0.195833 C 43 ARG
127 C127 -0.158899 -13.996 1.49953 C 43 ARG
128 O128 -0.250298 -13.5085 -0.00179649 O 43 ARG
129 C129 -3.73966 -13.5003 -1.14622 C 44 GLY
130 C130 -3.75687 -12.5005 -1.14656 C 44 GLY
131 H131 -7.05 -14.5 0 H 45 GLY
132 O132 -5.94741 -6.2567 2.20077 O 46 ASP
133 O133 -4.75221 -6.22575 1.29494 O 46 ASP
134 C134 -3.7347 -4.69148 -1.46654 C 47 ASN
135 C135 -3.765 -4.99459 0.00220433 C 47 ASN
136 C136 -3.79531 -5.2977 1.47095 C 47 ASN
137 C137 -3.73276 -8.65462 -1.34363 C 48 ASP
138 C138 -3.75345 -7.99666 0.00420264 C 48 ASP
139 C139 -3.77413 -7.33869 1.35203 C 48 ASP
140 O140 -9.92163 -5.50967 1.02472 O 49 ARG
141 O141 -8.96056 -5.44903 1.29429 O 49 ARG
142 O142 -7.99949 -5.38838 1.56386 O 49 ARG
143 O143 -7.03842 -5.32773 1.83343 O 49 ARG
144 O144 -6.07735 -5.26709 2.103 O 49 ARG
145 C145 -9.92036 -6.49777 0.984473 C 50 ASN
146 C146 -10.056 -6.49875 -0.0062863 C 50 ASN
147 C147 -4.60414 -6.47357 -0.814982 C 51 ARG
148 C148 -3.62242 -6.33169 0.310232 C 51 ARG
149 C149 -2.64071 -6.18981 1.43545 C 51 ARG
150 O150 -3.25839 -6.50488 0.0144601 O 51 ARG
151 C151 -6.74856 -6.48856 -1.15908 C 52 GLY
152 C152 -6.75374 -5.4887 -1.14275 C 52 GLY
153 H153 -10.05 -7.5 0 H 53 GLY
154 C154 2.49141 12.0129 5.51043 C 54 ALA
155 C155 2.49154 11.9686 6.25912 C 54 ALA
156 C156 2.49167 11.9243 7.00781 C 54 ALA
157 C157 1.49157 11.9948 5.50953 C 54 ALA
158 C158 1.49183 11.9062 7.00691 C 54 ALA
159 C159 4.99338 12 5.50724 C 55 ARG
160 C160 4.99602 12.0288 6.25669 C 55 ARG
161 C161 4.99866 12.0575 7.00613 C 55 ARG
162 C162 5.99337 11.9965 5.50386 C 55 ARG
163 C163 5.99865 12.054 7.00274 C 55 ARG
164 C164 3.74585 13.2982 7.99927 C 56 ASN
165 C165 3.76294 13.1418 7.26596 C 56 ASN
166 C166 3.78004 12.9854 6.53265 C 56 ASN
167 C167 3.09676 13.2911 6.45152 C 56 ASN
168 C168 4.39043 13.4192 6.45435 C 56 ASN
169 C169 2.42439 13.5881 6.37251 C 56 ASN
170 C170 4.99182 13.8423 6.37812 C 56 ASN
171 C171 3.71166 13.6111 9.46589 C 56 ASN
172 H172 3.32423 12.2674 6.82199 H 57 ASP
173 H173 4.11743 12.1944 6.83245 H 58 ASP
174 H174 4.73615 13.2961 7.98756 H 59 GLY
175 C175 3.73603 16.0338 6.51745 C 60 THY
176 C176 3.75403 16.3201 7.98977 C 60 THY
177 C177 3.77204 16.6064 9.46209 C 60 THY
178 O178 1.75576 15.2976 4.41104 O 61 ALA
179 O179 1.74674 15.2973 3.41108 O 61 ALA
180 O180 5.74583 15.3036 4.39881 O 62 ALA
181 O181 5.74485 15.3036 3.39881 O 62 ALA
182 O182 1.74739 16.0478 3.39764 O 63 ALA
183 O183 2.74735 16.0504 3.40696 O 63 ALA
184 O184 3.7473 16.0529 3.41628 O 63 ALA
185 O185 4.74725 16.0555 3.42559 O 63 ALA
186 O186 5.74721 16.058 3.43491 O 63 ALA
187 O187 1.74597 16.5476 3.41406 O 63 ALA
188 O188 2.74592 16.5501 3.42338 O 63 ALA
189 O189 3.74587 16.5526 3.4327 O 63 ALA
190 O190 4.74583 16.5552 3.44202 O 63 ALA
191 O191 5.74578 16.5577 3.45134 O 63 ALA
192 O192 1.74206 16.2813 3.90556 O 63 ALA
193 O193 2.74202 16.2838 3.91488 O 63 ALA
194 O194 3.74197 16.2863 3.9242 O 63 ALA
195 O195 4.74193 16.2889 3.93352 O 63 ALA
196 O196 5.74188 16.2914 3.94283 O 63 ALA
197 O197 3.73571 15.2681 7.99587 O 64 GLY
198 H198 0.5 12 5.5 H 65 GLY
199 H199 7 12 5.5 H 66 GLY
200 H200 1.75 14.3 4.4 H 67 GLY
201 H201 5.75 14.3 4.4 H 68 GLY
202 H202 4.75 16.3 8 H 69 GLY
203 O203 6.86819 7.99946 6.93096 O 70 ASP
204 O204 8.05986 7.95819 7.84104 O 70 ASP
205 C205 5.98737 9.46683 4.00163 C 71 ASN
206 C206 6.00149 9.51624 5.50075 C 71 ASN
207 C207 6.01561 9.56564 6.99987 C 71 ASN
208 C208 6.03566 5.85925 4.15795 C 72 ASP
209 C209 6.00757 6.50051 5.51368 C 72 ASP
210 C210 5.97949 7.14177 6.86941 C 72 ASP
211 O211 8.01123 8.96465 7.83849 O 73 ARG
212 O212 8.82389 8.97259 7.2558 O 73 ARG
213 O213 9.63655 8.98054 6.67312 O 73 ARG
214 O214 10.4492 8.98848 6.09043 O 73 ARG
215 O215 11.2619 8.99643 5.50774 O 73 ARG
216 C216 12.2976 8.00337 5.50476 C 74 ASN
217 C217 11.2977 8.00098 5.51056 C 74 ASN
218 C218 6.95585 7.72468 4.88421 C 75 ARG
219 C219 5.86845 8.16084 5.82086 C 75 ARG
220 C220 4.78105 8.597 6.75752 C 75 ARG
221 O221 5.52411 7.99878 5.49657 O 75 ARG
222 C222 8.99439 8.004 4.33467 C 76 GLY
223 C223 8.99789 9.00375 4.35644 C 76 GLY
224 H224 12.3 7 5.5 H 77 GLY
225 O225 -0.493961 7.78826 7.87772 O 78 ASP
226 O226 0.695049 7.86046 6.96611 O 78 ASP
227 C227 1.50958 9.56508 4.0062 C 79 ASN
228 C228 1.4979 9.48539 5.50404 C 79 ASN
229 C229 1.48622 9.4057 7.00188 C 79 ASN
230 C230 1.47959 6.81585 4.03398 C 80 ASP
231 C231 1.50116 6.50273 5.50078 C 80 ASP
232 C232 1.52273 6.18961 6.96758 C 80 ASP
233 O233 -3.75267 9.00761 5.50625 O 81 ARG
234 O234 -2.93701 8.95297 6.0822 O 81 ARG
235 O235 -2.12135 8.89833 6.65815 O 81 ARG
236 O236 -1.30569 8.84369 7.23409 O 81 ARG
237 O237 -0.490027 8.78905 7.81004 O 81 ARG
238 C238 -3.79662 8.01002 5.49696 C 82 ASN
239 C239 -4.79662 8.01221 5.49701 C 82 ASN
240 C240 0.607105 7.78359 4.82811 C 83 ARG
241 C241 1.6588 8.11285 5.84571 C 83 ARG
242 C242 2.7105 8.44211 6.86332 C 83 ARG
243 O243 2.01527 8.01247 5.50978 O 83 ARG
244 C244 -1.50664 8.00717 4.3485 C 84 GLY
245 C245 -1.50234 9.00705 4.36282 C 84 GLY
246 H246 -4.8 7 5.5 H 85 GLY
247 C247 4.74819 23.9915 10.9926 C 86 ALA
248 C248 4.75347 23.9043 11.7375 C 86 ALA
249 C249 4.75875 23.8171 12.4824 C 86 ALA
250 C250 3.74845 24.0122 11.0021 C 86 ALA
251 C251 3.759 23.8378 12.4919 C 86 ALA
252 C252 7.25019 23.995 10.9951 C 87 ARG
253 C253 7.23434 24.0157 11.7447 C 87 ARG
254 C254 7.21849 24.0364 12.4942 C 87 ARG
255 C255 8.24997 23.9974 11.0162 C 87 ARG
256 C256 8.21827 24.0387 12.5153 C 87 ARG
257 C257 5.99322 25.3081 13.4836 C 88 ASN
258 C258 5.9366 25.1491 12.7529 C 88 ASN
259 C259 5.87998 24.9902 12.0221 C 88 ASN
260 C260 5.23399 25.3755 11.9883 C 88 ASN
261 C261 6.53026 25.3475 11.894 C 88 ASN
262 C262 4.59791 25.7508 11.956 C 88 ASN
263 C263 7.17051 25.6952 11.7688 C 88 ASN
264 C264 6.10646 25.6259 14.9452 C 88 ASN
265 H265 5.54348 24.2266 12.374 H 89 ASP
266 H266 6.36968 24.3316 12.3757 H 90 ASP
267 H267 6.99022 25.2867 13.4878 H 91 GLY
268 C268 6.04178 28.0345 12.0411 C 92 THY
269 C269 5.9967 28.3236 13.5123 C 92 THY
270 C270 5.95162 28.6127 14.9835 C 92 THY
271 O271 3.99023 27.295 9.90629 O 93 ALA
272 O272 4.00616 27.3027 8.90644 O 93 ALA
273 O273 8.0166 27.2997 9.90783 O 94 ALA
274 O274 8.03778 27.3132 8.90814 O 94 ALA
275 O275 4.07256 28.0484 8.91859 O 95 ALA
276 O276 5.07248 28.0516 8.93134 O 95 ALA
277 O277 6.07239 28.0549 8.9441 O 95 ALA
278 O278 7.0723 28.0581 8.95685 O 95 ALA
279 O279 8.07222 28.0614 8.96961 O 95 ALA
280 O280 4.07023 28.5452 8.97503 O 95 ALA
281 O281 5.07014 28.5484 8.98778 O 95 ALA
282 O282 6.07006 28.5517 9.00054 O 95 ALA
283 O283 7.06997 28.5549 9.01329 O 95 ALA
284 O284 8.06988 28.5582 9.02605 O 95 ALA
285 O285 4.06524 28.2403 9.44357 O 95 ALA
286 O286 5.06516 28.2436 9.45633 O 95 ALA
287 O287 6.06507 28.2468 9.46908 O 95 ALA
288 O288 7.06498 28.2501 9.48184 O 95 ALA
289 O289 8.0649 28.2533 9.49459 O 95 ALA
290 O290 6.00537 27.2677 13.4757 O 96 GLY
291 H291 2.75 24 11 H 97 GLY
292 H292 9.25 24 11 H 98 GLY
293 H293 4 26.3 9.9 H 99 GLY
294 H294 8 26.3 9.9 H 100 GLY
295 H295 7 28.3 13.5 H 101 GLY
296 O296 9.14215 20.5816 12.253 O 102 ASP
297 O297 10.3078 20.6097 13.1966 O 102 ASP
298 C298 8.24578 21.4505 9.49569 C 103 ASN
299 C299 8.25271 21.4968 10.995 C 103 ASN
300 C300 8.25963 21.543 12.4942 C 103 ASN
301 C301 8.25033 17.8982 9.63717 C 104 ASP
302 C302 8.24631 18.4936 11.0139 C 104 ASP
303 C303 8.2423 19.089 12.3907 C 104 ASP
304 O304 10.3407 21.5935 12.9984 O 105 ARG
305 O305 11.1674 21.442 12.4566 O 105 ARG
306 O306 11.9942 21.2906 11.9148 O 105 ARG
307 O307 12.8209 21.1391 11.373 O 105 ARG
308 O308 13.6477 20.9877 10.8312 O 105 ARG
309 C309 14.557 20.0044 10.9922 C 106 ASN
310 C310 13.5582 20.0102 10.9424 C 106 ASN
311 C311 9.12902 19.7952 10.2423 C 107 ARG
312 C312 8.1154 20.0483 11.3186 C 107 ARG
313 C313 7.10179 20.3014 12.395 C 107 ARG
314 O314 7.74743 19.9987 10.9837 O 107 ARG
315 C315 11.273 19.9926 9.86355 C 108 GLY
316 C316 11.2455 20.9922 9.85649 C 108 GLY
317 H317 14.55 19 11 H 109 GLY
318 O318 1.70989 20.3237 13.3613 O 110 ASP
319 O319 2.92598 20.3262 12.4832 O 110 ASP
320 C320 3.72772 21.65 9.50571 C 111 ASN
321 C321 3.74861 21.4982 10.9979 C 111 ASN
322 C322 3.76951 21.3464 12.49 C 111 ASN
323 C323 3.723 18.795 9.53225 C 112 ASP
324 C324 3.75241 18.4839 10.9993 C 112 ASP
325 C325 3.78183 18.1727 12.4664 C 112 ASP
326 O326 -1.63678 20.9894 10.9729 O 113 ARG
327 O327 -0.830485 21.0702 11.5588 O 113 ARG
328 O328 -0.0241861 21.151 12.1448 O 113 ARG
329 O329 0.782112 21.2318 12.7307 O 113 ARG
330 O330 1.58841 21.3127 13.3167 O 113 ARG
331 C331 -1.54982 20.0014 10.9853 C 114 ASN
332 C332 -2.54969 20.0021 11.0014 C 114 ASN
333 C333 2.79628 19.8522 10.3943 C 115 ARG
334 C334 3.91028 20.1249 11.3611 C 115 ARG
335 C335 5.02429 20.3975 12.3278 C 115 ARG
336 O336 4.24509 20.0187 11.0052 O 115 ARG
337 C337 0.746733 19.9991 9.8495 C 116 GLY
338 C338 0.746968 20.999 9.83683 C 116 GLY
339 H339 -2.55 19 11 H 117 GLY
340 C340 6.99709 36.0049 16.497 C 118 ALA
341 C341 6.99456 36.0606 17.245 C 118 ALA
342 C342 6.99204 36.1162 17.9929 C 118 ALA
343 C343 5.99712 35.9971 16.4942 C 118 ALA
344 C344 5.99207 36.1083 17.9901 C 118 ALA
345 C345 9.49659 36.0011 16.5051 C 119 ARG
346 C346 9.49435 35.8461 17.2389 C 119 ARG
347 C347 9.49211 35.6911 17.9727 C 119 ARG
348 C348 10.4965 35.988 16.5054 C 119 ARG
349 C349 10.492 35.6781 17.973 C 119 ARG
350 C350 8.24187 37.3029 19.024 C 120 ASN
351 C351 8.29438 37.1042 18.3027 C 120 ASN
352 C352 8.34689 36.9056 17.5814 C 120 ASN
353 C353 7.74849 37.3332 17.4201 C 120 ASN
354 C354 9.03599 37.2072 17.5485 C 120 ASN
355 C355 7.1588 37.7502 17.2623 C 120 ASN
356 C356 9.71399 37.5002 17.5172 C 120 ASN
357 C357 8.13685 37.7002 20.4666 C 120 ASN
358 H358 7.85947 36.1943 17.8549 H 121 ASP
359 H359 8.78002 36.218 17.9574 H 122 ASP
360 H360 9.24653 37.3045 19.0018 H 123 GLY
361 C361 8.2666 39.96 17.5623 C 124 THY
362 C362 8.24937 40.3318 19.0154 C 124 THY
363 C363 8.23214 40.7035 20.4685 C 124 THY
364 O364 6.2549 39.2944 15.4091 O 125 ALA
365 O365 6.27033 39.296 14.4092 O 125 ALA
366 O366 10.2466 39.3029 15.4132 O 126 ALA
367 O367 10.2375 39.3285 14.4136 O 126 ALA
368 O368 6.23789 40.0412 14.4122 O 127 ALA
369 O369 7.23784 40.0519 14.4136 O 127 ALA
370 O370 8.23778 40.0625 14.4149 O 127 ALA
371 O371 9.23772 40.0732 14.4162 O 127 ALA
372 O372 10.2377 40.0838 14.4176 O 127 ALA
373 O373 6.23254 40.5405 14.4382 O 127 ALA
374 O374 7.23249 40.5512 14.4395 O 127 ALA
375 O375 8.23243 40.5618 14.4409 O 127 ALA
376 O376 9.23237 40.5725 14.4422 O 127 ALA
377 O377 10.2323 40.5831 14.4436 O 127 ALA
378 O378 6.23483 40.2649 14.9245 O 127 ALA
379 O379 7.23477 40.2756 14.9259 O 127 ALA
380 O380 8.23471 40.2862 14.9272 O 127 ALA
381 O381 9.23466 40.2968 14.9286 O 127 ALA
382 O382 10.2346 40.3075 14.9299 O 127 ALA
383 O383 8.24632 39.2831 18.9961 O 128 GLY
384 H384 5 36 16.5 H 129 GLY
385 H385 11.5 36 16.5 H 130 GLY
386 H386 6.25 38.3 15.4 H 131 GLY
387 H387 10.25 38.3 15.4 H 132 GLY
388 H388 9.25 40.3 19 H 133 GLY
389 O389 11.5025 32.1791 17.7912 O 134 ASP
390 O390 12.6379 32.1403 18.7707 O 134 ASP
391 C391 10.5013 33.8511 15.0272 C 135 ASN
392 C392 10.5066 33.5131 16.4886 C 135 ASN
393 C393 10.5118 33.175 17.95 C 135 ASN
394 C394 10.4903 29.8691 15.1385 C 136 ASP
395 C395 10.5039 30.4958 16.5012 C 136 ASP
396 C396 10.5174 31.1224 17.864 C 136 ASP
397 O397 12.5893 33.1396 18.8553 O 137 ARG
398 O398 13.3989 33.1023 18.2696 O 137 ARG
399 O399 14.2086 33.065 17.6839 O 137 ARG
400 O400 15.0183 33.0278 17.0982 O 137 ARG
401 O401 15.8279 32.9905 16.5124 O 137 ARG
402 C402 16.7906 31.993 16.5019 C 138 ASN
403 C403 15.7916 31.9903 16.5469 C 138 ASN
404 C404 11.3561 31.9833 15.6981 C 139 ARG
405 C405 10.3655 32.0654 16.8215 C 139 ARG
406 C406 9.37495 32.1476 17.945 C 139 ARG
407 O407 9.99124 32.0013 16.4962 O 139 ARG
408 C408 13.5022 32.0086 15.3502 C 140 GLY
409 C409 13.4928 33.0085 15.3406 C 140 GLY
410 H410 16.8 31 16.5 H 141 GLY
411 O411 4.02 32.4955 18.8797 O 142 ASP
412 O412 5.12565 32.4505 17.8671 O 142 ASP
413 C413 5.99475 33.3991 15.008 C 143 ASN
414 C414 6.00192 33.5021 16.5045 C 143 ASN
415 C415 6.0091 33.6052 18.0009 C 143 ASN
416 C416 6.01894 30.8132 15.0555 C 144 ASP
417 C417 5.99833 30.4906 16.5202 C 144 ASP
418 C418 5.97772 30.1679 17.985 C 144 ASP
419 O419 0.609375 32.9949 16.5071 O 145 ARG
420 O420 1.42998 33.1161 17.0656 O 145 ARG
421 O421 2.25059 33.2373 17.6241 O 145 ARG
422 O422 3.0712 33.3585 18.1826 O 145 ARG
423 O423 3.89181 33.4796 18.7411 O 145 ARG
424 C424 0.70553 32.0046 16.531 C 146 ASN
425 C425 -0.294171 32.0066 16.5066 C 146 ASN
426 C426 5.05556 31.663 15.9236 C 147 ARG
427 C427 6.16643 32.0472 16.8555 C 147 ARG
428 C428 7.27729 32.4313 17.7874 C 147 ARG
429 O429 6.4977 31.9852 16.4862 O 147 ARG
430 C430 3.00927 32.0025 15.3302 C 148 GLY
431 C431 3.00556 33.0023 15.348 C 148 GLY
432 H432 -0.3 31 16.5 H 149 GLY
433 H433 0.246298 -0.013547 -0.00320791 H 0 ALA
434 H434 2.74684 0.00267707 0.0110219 H 1 ARG
435 H435 0.234563 -0.311159 1.46692 H 0 ALA
436 H436 0.944708 0.225351 1.35024 H 3 ASP
437 H437 2.73546 0.388382 1.46054 H 1 ARG
438 H438 1.85005 0.2731 1.35511 H 4 ASP
439 H439 1.35 0.980994 1.05359 H 2 ASN
440 H440 1.48517 1.29967 2.5131 H 2 ASN
441 H441 2.49147 1.28326 2.49495 H 5 GLY
442 H442 1.62033 1.61834 3.97261 H 2 ASN
443 H443 1.48788 4.61664 3.97027 H 6 THY
444 H444 -0.398219 3.30581 -2.09269 H 7 ALA
445 H445 -0.414643 4.05084 -2.12341 H 9 ALA
446 H446 3.52822 3.28901 -2.08927 H 8 ALA
447 H447 3.58529 4.0292 -2.13386 H 9 ALA
448 H448 1.49138 4.31806 2.50029 H 6 THY
449 H449 1.51138 3.27253 2.50176 H 10 GLY
450 H450 -1.75 0 0 H 11 GLY
451 H451 -0.753669 -0.00978436 -0.010428 H 0 ALA
452 H452 4.75 0 0 H 12 GLY
453 H453 3.74674 0.0155662 0.0154376 H 1 ARG
454 H454 -0.5 2.3 -1.1 H 13 GLY
455 H455 -0.491645 3.30116 -1.09708 H 7 ALA
456 H456 3.5 2.3 -1.1 H 14 GLY
457 H457 3.50009 3.29636 -1.0897 H 8 ALA
458 H458 2.5 4.3 2.5 H 15 GLY
459 H459 3.7597 -2.4962 -0.0178455 H 16 ASP
460 H460 2.75 -2.5 0 H 17 GLY
461 H461 6.75968 -2.48547 -0.016382 H 16 ASP
462 H462 7.75 -2.5 0 H 18 GLY
463 H463 5.8444 -12.9802 2.23576 H 19 ASP
464 H464 6.04087 -12.0143 2.13339 H 22 ARG
465 H465 9.87294 -12.4859 1.08797 H 22 ARG
466 H466 9.90631 -13.4962 0.993223 H 23 ASN
467 H467 4.60914 -12.9929 1.38489 H 19 ASP
468 H468 3.58928 -13.4003 0.355729 H 24 ARG
469 H469 10.05 -14.5 0 H 26 GLY
470 H470 10.0427 -13.4983 0.00256336 H 23 ASN
471 H471 3.25 -12 0 H 26 GLY
472 H472 3.75799 -11.9824 -0.0117503 H 20 ASN
473 H473 3.25 -15 0 H 26 GLY
474 H474 3.74033 -15.0039 -0.0111803 H 21 ASP
475 H475 3.25782 -13.5068 -0.00313914 H 24 ARG
476 H476 4.25 -15 0 H 26 GLY
477 H477 6.75 -14.5 -1.15 H 26 GLY
478 H478 4.25 -12 0 H 26 GLY
479 H479 6.75 -11.5 -1.15 H 26 GLY
480 H480 6.75471 -13.4949 -1.14267 H 25 GLY
481 H481 6.74247 -12.4953 -1.17032 H 25 GLY
482 H482 9.4099 -6.28265 1.46979 H 27 ASP
483 H483 9.59533 -5.33815 1.24896 H 30 ARG
484 H484 12.881 -5.50217 -1.02639 H 30 ARG
485 H485 12.9422 -6.49041 -0.996756 H 31 ASN
486 H486 8.04826 -6.29273 0.840635 H 27 ASP
487 H487 6.69407 -6.43026 0.215408 H 32 ARG
488 H488 13.05 -7.5 0 H 34 GLY
489 H489 13.0506 -6.50215 -0.00271109 H 31 ASN
490 H490 6.25 -5 0 H 34 GLY
491 H491 6.75245 -4.99178 0.000553874 H 28 ASN
492 H492 6.25 -8 0 H 34 GLY
493 H493 6.74459 -7.99454 -0.0029776 H 29 ASP
494 H494 6.24217 -6.49335 0.0109399 H 32 ARG
495 H495 7.25 -8 0 H 34 GLY
496 H496 9.75 -7.5 -1.15 H 34 GLY
497 H497 7.25 -5 0 H 34 GLY
498 H498 9.75 -4.5 -1.15 H 34 GLY
499 H499 9.76043 -6.4955 -1.15444 H 33 GLY
500 H500 9.76209 -5.49551 -1.15259 H 33 GLY
501 H501 6.75752 -2.07824 1.42728 H 16 ASP
502 H502 6.74236 -4.58047 1.44303 H 28 ASN
503 H503 3.75754 -2.08898 1.42582 H 16 ASP
504 H504 3.77335 -11.5896 1.43582 H 20 ASN
505 H505 -3.75306 -2.50485 -0.00191367 H 35 ASP
506 H506 -4.75 -2.5 0 H 36 GLY
507 H507 -0.753067 -2.4998 0.00149704 H 35 ASP
508 H508 0.25 -2.5 0 H 37 GLY
509 H509 -3.5571 -13.657 1.05569 H 38 ASP
510 H510 -3.49688 -12.6542 1.05766 H 41 ARG
511 H511 -6.9257 -12.4947 -0.99604 H 41 ARG
512 H512 -6.98563 -13.4952 -1.01074 H 42 ASN
513 H513 -2.07639 -13.6097 0.820605 H 38 ASP
514 H514 -0.70948 -13.4988 0.195833 H 43 ARG
515 H515 -7.05 -14.5 0 H 45 GLY
516 H516 -7.04236 -13.4958 -0.0123519 H 42 ASN
517 H517 -0.25 -12 0 H 45 GLY
518 H518 -0.754989 -11.9941 0.00888261 H 39 ASN
519 H519 -0.25 -15 0 H 45 GLY
520 H520 -0.737516 -15.0048 -0.0109413 H 40 ASP
521 H521 -0.250298 -13.5085 -0.00179649 H 43 ARG
522 H522 -1.25 -15 0 H 45 GLY
523 H523 -3.75 -14.5 -1.15 H 45 GLY
524 H524 -1.25 -12 0 H 45 GLY
525 H525 -3.75 -11.5 -1.15 H 45 GLY
526 H526 -3.73966 -13.5003 -1.14622 H 44 GLY
527 H527 -3.75687 -12.5005 -1.14656 H 44 GLY
528 H528 -5.94741 -6.2567 2.20077 H 46 ASP
529 H529 -6.07735 -5.26709 2.103 H 49 ARG
530 H530 -9.92163 -5.50967 1.02472 H 49 ARG
531 H531 -9.92036 -6.49777 0.984473 H 50 ASN
532 H532 -4.75221 -6.22575 1.29494 H 46 ASP
533 H533 -3.62242 -6.33169 0.310232 H 51 ARG
534 H534 -10.05 -7.5 0 H 53 GLY
535 H535 -10.056 -6.49875 -0.0062863 H 50 ASN
536 H536 -3.25 -5 0 H 53 GLY
537 H537 -3.765 -4.99459 0.00220433 H 47 ASN
538 H538 -3.25 -8 0 H 53 GLY
539 H539 -3.75345 -7.99666 0.00420264 H 48 ASP
540 H540 -3.25839 -6.50488 0.0144601 H 51 ARG
541 H541 -4.25 -8 0 H 53 GLY
542 H542 -6.75 -7.5 -1.15 H 53 GLY
543 H543 -4.25 -5 0 H 53 GLY
544 H544 -6.75 -4.5 -1.15 H 53 GLY
545 H545 -6.74856 -6.48856 -1.15908 H 52 GLY
546 H546 -6.75374 -5.4887 -1.14275 H 52 GLY
547 H547 -3.75423 -2.80217 1.46832 H 35 ASP
548 H548 -3.79531 -5.2977 1.47095 H 47 ASN
549 H549 -0.754238 -2.79712 1.47173 H 35 ASP
550 H550 -0.769189 -12.3081 1.47559 H 39 ASN
551 H551 2.49141 12.0129 5.51043 H 54 ALA
552 H552 4.99338 12 5.50724 H 55 ARG
553 H553 2.49167 11.9243 7.00781 H 54 ALA
554 H554 3.32423 12.2674 6.82199 H 57 ASP
555 H555 4.99866 12.0575 7.00613 H 55 ARG
556 H556 4.11743 12.1944 6.83245 H 58 ASP
557 H557 3.78004 12.9854 6.53265 H 56 ASN
558 H558 3.74585 13.2982 7.99927 H 56 ASN
559 H559 4.73615 13.2961 7.98756 H 59 GLY
560 H560 3.71166 13.6111 9.46589 H 56 ASN
561 H561 3.77204 16.6064 9.46209 H 60 THY
562 H562 1.74674 15.2973 3.41108 H 61 ALA
563 H563 1.74739 16.0478 3.39764 H 63 ALA
564 H564 5.74485 15.3036 3.39881 H 62 ALA
565 H565 5.74721 16.058 3.43491 H 63 ALA
566 H566 3.75403 16.3201 7.98977 H 60 THY
567 H567 3.73571 15.2681 7.99587 H 64 GLY
568 H568 0.5 12 5.5 H 65 GLY
569 H569 1.49157 11.9948 5.50953 H 54 ALA
570 H570 7 12 5.5 H 66 GLY
571 H571 5.99337 11.9965 5.50386 H 55 ARG
572 H572 1.75 14.3 4.4 H 67 GLY
573 H573 1.75576 15.2976 4.41104 H 61 ALA
574 H574 5.75 14.3 4.4 H 68 GLY
575 H575 5.74583 15.3036 4.39881 H 62 ALA
576 H576 4.75 16.3 8 H 69 GLY
577 H577 8.05986 7.95819 7.84104 H 70 ASP
578 H578 8.01123 8.96465 7.83849 H 73 ARG
579 H579 11.2619 8.99643 5.50774 H 73 ARG
580 H580 11.2977 8.00098 5.51056 H 74 ASN
581 H581 6.86819 7.99946 6.93096 H 70 ASP
582 H582 5.86845 8.16084 5.82086 H 75 ARG
583 H583 12.3 7 5.5 H 77 GLY
584 H584 12.2976 8.00337 5.50476 H 74 ASN
585 H585 5.5 9.5 5.5 H 77 GLY
586 H586 6.00149 9.51624 5.50075 H 71 ASN
587 H587 5.5 6.5 5.5 H 77 GLY
588 H588 6.00757 6.50051 5.51368 H 72 ASP
589 H589 5.52411 7.99878 5.49657 H 75 ARG
590 H590 6.5 6.5 5.5 H 77 GLY
591 H591 9 7 4.35 H 77 GLY
592 H592 6.5 9.5 5.5 H 77 GLY
593 H593 9 10 4.35 H 77 GLY
594 H594 8.99439 8.004 4.33467 H 76 GLY
595 H595 8.99789 9.00375 4.35644 H 76 GLY
596 H596 -0.493961 7.78826 7.87772 H 78 ASP
597 H597 -0.490027 8.78905 7.81004 H 81 ARG
598 H598 -3.75267 9.00761 5.50625 H 81 ARG
599 H599 -3.79662 8.01002 5.49696 H 82 ASN
600 H600 0.695049 7.86046 6.96611 H 78 ASP
601 H601 1.6588 8.11285 5.84571 H 83 ARG
602 H602 -4.8 7 5.5 H 85 GLY
603 H603 -4.79662 8.01221 5.49701 H 82 ASN
604 H604 2 9.5 5.5 H 85 GLY
605 H605 1.4979 9.48539 5.50404 H 79 ASN
606 H606 2 6.5 5.5 H 85 GLY
607 H607 1.50116 6.50273 5.50078 H 80 ASP
608 H608 2.01527 8.01247 5.50978 H 83 ARG
609 H609 1 6.5 5.5 H 85 GLY
610 H610 -1.5 7 4.35 H 85 GLY
611 H611 1 9.5 5.5 H 85 GLY
612 H612 -1.5 10 4.35 H 85 GLY
613 H613 -1.50664 8.00717 4.3485 H 84 GLY
614 H614 -1.50234 9.00705 4.36282 H 84 GLY
615 H615 4.74819 23.9915 10.9926 H 86 ALA
616 H616 7.25019 23.995 10.9951 H 87 ARG
617 H617 4.75875 23.8171 12.4824 H 86 ALA
618 H618 5.54348 24.2266 12.374 H 89 ASP
619 H619 7.21849 24.0364 12.4942 H 87 ARG
620 H620 6.36968 24.3316 12.3757 H 90 ASP
621 H621 5.87998 24.9902 12.0221 H 88 ASN
622 H622 5.99322 25.3081 13.4836 H 88 ASN
623 H623 6.99022 25.2867 13.4878 H 91 GLY
624 H624 6.10646 25.6259 14.9452 H 88 ASN
625 H625 5.95162 28.6127 14.9835 H 92 THY
626 H626 4.00616 27.3027 8.90644 H 93 ALA
627 H627 4.07256 28.0484 8.91859 H 95 ALA
628 H628 8.03778 27.3132 8.90814 H 94 ALA
629 H629 8.07222 28.0614 8.96961 H 95 ALA
630 H630 5.9967 28.3236 13.5123 H 92 THY
631 H631 6.00537 27.2677 13.4757 H 96 GLY
632 H632 2.75 24 11 H 97 GLY
633 H633 3.74845 24.0122 11.0021 H 86 ALA
634 H634 9.25 24 11 H 98 GLY
635 H635 8.24997 23.9974 11.0162 H 87 ARG
636 H636 4 26.3 9.9 H 99 GLY
637 H637 3.99023 27.295 9.90629 H 93 ALA
638 H638 8 26.3 9.9 H 100 GLY
639 H639 8.0166 27.2997 9.90783 H 94 ALA
640 H640 7 28.3 13.5 H 101 GLY
641 H641 10.3078 20.6097 13.1966 H 102 ASP
642 H642 10.3407 21.5935 12.9984 H 105 ARG
643 H643 13.6477 20.9877 10.8312 H 105 ARG
644 H644 13.5582 20.0102 10.9424 H 106 ASN
645 H645 9.14215 20.5816 12.253 H 102 ASP
646 H646 8.1154 20.0483 11.3186 H 107 ARG
647 H647 14.55 19 11 H 109 GLY
648 H648 14.557 20.0044 10.9922 H 106 ASN
649 H649 7.75 21.5 11 H 109 GLY
650 H650 8.25271 21.4968 10.995 H 103 ASN
651 H651 7.75 18.5 11 H 109 GLY
652 H652 8.24631 18.4936 11.0139 H 104 ASP
653 H653 7.74743 19.9987 10.9837 H 107 ARG
654 H654 8.75 18.5 11 H 109 GLY
655 H655 11.25 19 9.85 H 109 GLY
656 H656 8.75 21.5 11 H 109 GLY
657 H657 11.25 22 9.85 H 109 GLY
658 H658 11.273 19.9926 9.86355 H 108 GLY
659 H659 11.2455 20.9922 9.85649 H 108 GLY
660 H660 1.70989 20.3237 13.3613 H 110 ASP
661 H661 1.58841 21.3127 13.3167 H 113 ARG
662 H662 -1.63678 20.9894 10.9729 H 113 ARG
663 H663 -1.54982 20.0014 10.9853 H 114 ASN
664 H664 2.92598 20.3262 12.4832 H 110 ASP
665 H665 3.91028 20.1249 11.3611 H 115 ARG
666 H666 -2.55 19 11 H 117 GLY
667 H667 -2.54969 20.0021 11.0014 H 114 ASN
668 H668 4.25 21.5 11 H 117 GLY
669 H669 3.74861 21.4982 10.9979 H 111 ASN
670 H670 4.25 18.5 11 H 117 GLY
671 H671 3.75241 18.4839 10.9993 H 112 ASP
672 H672 4.24509 20.0187 11.0052 H 115 ARG
673 H673 3.25 18.5 11 H 117 GLY
674 H674 0.75 19 9.85 H 117 GLY
675 H675 3.25 21.5 11 H 117 GLY
676 H676 0.75 22 9.85 H 117 GLY
677 H677 0.746733 19.9991 9.8495 H 116 GLY
678 H678 0.746968 20.999 9.83683 H 116 GLY
679 H679 6.99709 36.0049 16.497 H 118 ALA
680 H680 9.49659 36.0011 16.5051 H 119 ARG
681 H681 6.99204 36.1162 17.9929 H 118 ALA
682 H682 7.85947 36.1943 17.8549 H 121 ASP
683 H683 9.49211 35.6911 17.9727 H 119 ARG
684 H684 8.78002 36.218 17.9574 H 122 ASP
685 H685 8.34689 36.9056 17.5814 H 120 ASN
686 H686 8.24187 37.3029 19.024 H 120 ASN
687 H687 9.24653 37.3045 19.0018 H 123 GLY
688 H688 8.13685 37.7002 20.4666 H 120 ASN
689 H689 8.23214 40.7035 20.4685 H 124 THY
690 H690 6.27033 39.296 14.4092 H 125 ALA
691 H691 6.23789 40.0412 14.4122 H 127 ALA
692 H692 10.2375 39.3285 14.4136 H 126 ALA
693 H693 10.2377 40.0838 14.4176 H 127 ALA
694 H694 8.24937 40.3318 19.0154 H 124 THY
695 H695 8.24632 39.2831 18.9961 H 128 GLY
696 H696 5 36 16.5 H 129 GLY
697 H697 5.99712 35.9971 16.4942 H 118 ALA
698 H698 11.5 36 16.5 H 130 GLY
699 H699 10.4965 35.988 16.5054 H 119 ARG
700 H700 6.25 38.3 15.4 H 131 GLY
701 H701 6.2549 39.2944 15.4091 H 125 ALA
702 H702 10.25 38.3 15.4 H 132 GLY
703 H703 10.2466 39.3029 15.4132 H 126 ALA
704 H704 9.25 40.3 19 H 133 GLY
705 H705 12.6379 32.1403 18.7707 H 134 ASP
706 H706 12.5893 33.1396 18.8553 H 137 ARG
707 H707 15.8279 32.9905 16.5124 H 137 ARG
708 H708 15.7916 31.9903 16.5469 H 138 ASN
709 H709 11.5025 32.1791 17.7912 H 134 ASP
710 H710 10.3655 32.0654 16.8215 H 139 ARG
711 H711 16.8 31 16.5 H 141 GLY
712 H712 16.7906 31.993 16.5019 H 138 ASN
713 H713 10 33.5 16.5 H 141 GLY
714 H714 10.5066 33.5131 16.4886 H 135 ASN
715 H715 10 30.5 16.5 H 141 GLY
716 H716 10.5039 30.4958 16.5012 H 136 ASP
717 H717 9.99124 32.0013 16.4962 H 139 ARG
718 H718 11 30.5 16.5 H 141 GLY
719 H719 13.5 31 15.35 H 141 GLY
720 H720 11 33.5 16.5 H 141 GLY
721 H721 13.5 34 15.35 H 141 GLY
722 H722 13.5022 32.0086 15.3502 H 140 GLY
723 H723 13.4928 33.0085 15.3406 H 140 GLY
724 H724 4.02 32.4955 18.8797 H 142 ASP
725 H725 3.89181 33.4796 18.7411 H 145 ARG
726 H726 0.609375 32.9949 16.5071 H 145 ARG
727 H727 0.70553 32.0046 16.531 H 146 ASN
728 H728 5.12565 32.4505 17.8671 H 142 ASP
729 H729 6.16643 32.0472 16.8555 H 147 ARG
730 H730 -0.3 31 16.5 H 149 GLY
731 H731 -0.294171 32.0066 16.5066 H 146 ASN
732 H732 6.5 33.5 16.5 H 149 GLY
733 H733 6.00192 33.5021 16.5045 H 143 ASN
734 H734 6.5 30.5 16.5 H 149 GLY
735 H735 5.99833 30.4906 16.5202 H 144 ASP
736 H736 6.4977 31.9852 16.4862 H 147 ARG
737 H737 5.5 30.5 16.5 H 149 GLY
738 H738 3 31 15.35 H 149 GLY
739 H739 5.5 33.5 16.5 H 149 GLY
740 H740 3 34 15.35 H 149 GLY
741 H741 3.00927 32.0025 15.3302 H 148 GLY
742 H742 3.00556 33.0023 15.348 H 148 GLY
743 H743 -0.765403 -0.307397 1.4597 H 0 ALA
744 H744 3.73537 0.401271 1.46496 H 1 ARG
745 H745 1.47959 6.81585 4.03398 H 80 ASP
746 H746 1.49183 11.9062 7.00691 H 54 ALA
747 H747 1.48622 9.4057 7.00188 H 79 ASN
748 H748 5.99865 12.054 7.00274 H 55 ARG
749 H749 6.01561 9.56564 6.99987 H 71 ASN
750 H750 3.723 18.795 9.53225 H 112 ASP
751 H751 3.759 23.8378 12.4919 H 86 ALA
752 H752 3.76951 21.3464 12.49 H 111 ASN
753 H753 8.21827 24.0387 12.5153 H 87 ARG
754 H754 8.25963 21.543 12.4942 H 103 ASN
755 H755 6.01894 30.8132 15.0555 H 144 ASP
756 H756 5.99207 36.1083 17.9901 H 118 ALA
757 H757 6.0091 33.6052 18.0009 H 143 ASN
758 H758 10.492 35.6781 17.973 H 119 ARG
759 H759 10.5118 33.175 17.95 H 135 ASN
@<TRIPOS>BOND
1 1 2 2
2 1 4 2
3 2 3 2
4 3 5 2
5 6 7 2
6 6 9 2
7 7 8 2
8 8 10 2
9 11 12 2
10 11 18 2
11 12 13 2
12 13 14 2
13 13 15 2
14 14 16 2
15 15 17 2
16 22 23 2
17 23 24 2
18 25 26 2
19 27 28 2
20 29 34 2
21 29 39 2
22 29 30 2
23 30 35 2
24 30 40 2
25 30 31 2
26 31 36 2
27 31 41 2
28 31 32 2
29 32 37 2
30 32 42 2
31 32 33 2
32 33 38 2
33 33 43 2
34 50 51 2
35 50 53 2
36 51 52 2
37 53 54 2
38 54 55 2
39 58 59 2
40 60 61 2
41 61 62 2
42 63 64 2
43 64 65 2
44 66 67 2
45 67 68 2
46 68 69 2
47 69 70 2
48 71 72 2
49 73 74 2
50 74 76 2
51 74 75 2
52 77 78 2
53 80 81 2
54 82 83 2
55 83 84 2
56 85 86 2
57 86 87 2
58 88 89 2
59 89 90 2
60 90 91 2
61 91 92 2
62 93 94 2
63 95 96 2
64 96 98 2
65 96 97 2
66 99 100 2
67 102 103 2
68 102 105 2
69 103 104 2
70 105 106 2
71 106 107 2
72 110 111 2
73 112 113 2
74 113 114 2
75 115 116 2
76 116 117 2
77 118 119 2
78 119 120 2
79 120 121 2
80 121 122 2
81 123 124 2
82 125 126 2
83 126 128 2
84 126 127 2
85 129 130 2
86 132 133 2
87 134 135 2
88 135 136 2
89 137 138 2
90 138 139 2
91 140 141 2
92 141 142 2
93 142 143 2
94 143 144 2
95 145 146 2
96 147 148 2
97 148 150 2
98 148 149 2
99 151 152 2
100 154 155 2
101 154 157 2
102 155 156 2
103 156 158 2
104 159 160 2
105 159 162 2
106 160 161 2
107 161 163 2
108 164 165 2
109 164 171 2
110 165 166 2
111 166 167 2
112 166 168 2
113 167 169 2
114 168 170 2
115 175 176 2
116 176 177 2
117 178 179 2
118 180 181 2
119 182 187 2
120 182 192 2
121 182 183 2
122 183 188 2
123 183 193 2
124 183 184 2
125 184 189 2
126 184 194 2
127 184 185 2
128 185 190 2
129 185 195 2
130 185 186 2
131 186 191 2
132 186 196 2
133 203 204 2
134 205 206 2
135 206 207 2
136 208 209 2
137 209 210 2
138 211 212 2
139 212 213 2
140 213 214 2
141 214 215 2
142 216 217 2
143 218 219 2
144 219 221 2
145 219 220 2
146 222 223 2
147 225 226 2
148 227 228 2
149 228 229 2
150 230 231 2
151 231 232 2
152 233 234 2
153 234 235 2
154 235 236 2
155 236 237 2
156 238 239 2
157 240 241 2
158 241 243 2
159 241 242 2
160 244 245 2
161 247 248 2
162 247 250 2
163 248 249 2
164 249 251 2
165 252 253 2
166 252 255 2
167 253 254 2
168 254 256 2
169 257 258 2
170 257 264 2
171 258 259 2
172 259 260 2
173 259 261 2
174 260 262 2
175 261 263 2
176 268 269 2
177 269 270 2
178 271 272 2
179 273 274 2
180 275 280 2
181 275 285 2
182 275 276 2
183 276 281 2
184 276 286 2
185 276 277 2
186 277 282 2
187 277 287 2
188 277 278 2
189 278 283 2
190 278 288 2
191 278 279 2
192 279 284 2
193 279 289 2
194 296 297 2
195 298 299 2
196 299 300 2
197 301 302 2
198 302 303 2
199 304 305 2
200 305 306 2
201 306 307 2
202 307 308 2
203 309 310 2
204 311 312 2
205 312 314 2
206 312 313 2
207 315 316 2
208 318 319 2
209 320 321 2
210 321 322 2
211 323 324 2
212 324 325 2
213 326 327 2
214 327 328 2
215 328 329 2
216 329 330 2
217 331 332 2
218 333 334 2
219 334 336 2
220 334 335 2
221 337 338 2
222 340 341 2
223 340 343 2
224 341 342 2
225 342 344 2
226 345 346 2
227 345 348 2
228 346 347 2
229 347 349 2
230 350 351 2
231 350 357 2
232 351 352 2
233 352 353 2
234 352 354 2
235 353 355 2
236 354 356 2
237 361 362 2
238 362 363 2
239 364 365 2
240 366 367 2
241 368 373 2
242 368 378 2
243 368 369 2
244 369 374 2
245 369 379 2
246 369 370 2
247 370 375 2
248 370 380 2
249 370 371 2
250 371 376 2
251 371 381 2
252 371 372 2
253 372 377 2
254 372 382 2
255 389 390 2
256 391 392 2
257 392 393 2
258 394 395 2
259 395 396 2
260 397 398 2
261 398 399 2
262 399 400 2
263 400 401 2
264 402 403 2
265 404 405 2
266 405 407 2
267 405 406 2
268 408 409 2
269 411 412 2
270 413 414 2
271 414 415 2
272 416 417 2
273 417 418 2
274 419 420 2
275 420 421 2
276 421 422 2
277 422 423 2
278 424 425 2
279 426 427 2
280 427 429 2
281 427 428 2
282 430 431 2
