#
#
#

#
#

@<TRIPOS>MOLECULE
Panda
435 106
SMALL
NO CHARGES


@<TRIPOS>ATOM
1 C1 0.248706 -0.000205375 -0.000797999 C 0 GLY
2 C2 0.243383 -0.167812 0.730215 C 0 GLY
3 C3 0.23806 -0.335418 1.46123 C 0 GLY
4 C4 -0.751268 0.00259733 -0.00743748 C 0 GLY
5 C5 -0.761915 -0.332616 1.45459 C 0 GLY
6 C6 2.74387 0.00320689 -0.00101952 C 1 GLY
7 C7 2.74172 0.0887031 0.744088 C 1 GLY
8 C8 2.73957 0.174199 1.4892 C 1 GLY
9 C9 3.74378 -0.00987085 0.00337057 C 1 GLY
10 C10 3.73947 0.161122 1.49359 C 1 GLY
11 C11 1.5042 1.31255 2.52311 C 2 GLY
12 C12 1.4194 1.16321 1.79303 C 2 GLY
13 C13 1.33459 1.01388 1.06296 C 2 GLY
14 C14 0.676969 1.38053 1.06435 C 2 GLY
15 C15 1.96797 1.39197 0.912045 C 2 GLY
16 C16 0.0295997 1.73747 1.06654 C 2 GLY
17 C17 2.59173 1.76018 0.764269 C 2 GLY
18 C18 1.67382 1.61123 3.98325 C 2 GLY
19 H19 0.8879 0.282281 1.36446 H 3 GLY
20 H20 1.8841 0.331295 1.274 H 4 GLY
21 H21 2.50434 1.2971 2.48461 H 5 GLY
22 C22 1.48736 4.04232 1.02073 C 6 GLY
23 C23 1.50326 4.32511 2.49375 C 6 GLY
24 C24 1.51916 4.6079 3.96677 C 6 GLY
25 O25 -0.499612 3.31326 -1.09673 O 7 GLY
26 O26 -0.412673 3.30542 -2.09291 O 7 GLY
27 O27 3.4984 3.30246 -1.09963 O 8 GLY
28 O28 3.49197 3.29663 -2.09959 O 8 GLY
29 O29 -0.425875 4.06254 -2.18761 O 9 GLY
30 O30 0.574038 4.05668 -2.17576 O 9 GLY
31 O31 1.57395 4.05083 -2.16391 O 9 GLY
32 O32 2.57386 4.04497 -2.15205 O 9 GLY
33 O33 3.57378 4.03911 -2.1402 O 9 GLY
34 O34 -0.422398 4.56028 -2.23494 O 9 GLY
35 O35 0.577515 4.55443 -2.22308 O 9 GLY
36 O36 1.57743 4.54857 -2.21123 O 9 GLY
37 O37 2.57734 4.54271 -2.19938 O 9 GLY
38 O38 3.57725 4.53686 -2.18752 O 9 GLY
39 O39 -0.42976 4.35877 -1.71356 O 9 GLY
40 O40 0.570153 4.35292 -1.7017 O 9 GLY
41 O41 1.57007 4.34706 -1.68985 O 9 GLY
42 O42 2.56998 4.3412 -1.67799 O 9 GLY
43 O43 3.56989 4.33534 -1.66614 O 9 GLY
44 O44 1.49618 3.28097 2.5001 O 10 GLY
45 H45 -1.75 0 0 H 11 GLY
46 H46 4.75 0 0 H 12 GLY
47 H47 -0.5 2.3 -1.1 H 13 GLY
48 H48 3.5 2.3 -1.1 H 14 GLY
49 H49 2.5 4.3 2.5 H 15 GLY
50 C50 3.73702 -2.67847 -1.49131 C 16 GLY
51 C51 3.73457 -2.50903 -0.00091619 C 16 GLY
52 C52 3.73211 -2.33958 1.48948 C 16 GLY
53 C53 6.73699 -2.66509 -1.48789 C 16 GLY
54 C54 6.73453 -2.49564 0.00250778 C 16 GLY
55 C55 6.73208 -2.32619 1.4929 C 16 GLY
56 H56 2.75 -2.5 0 H 17 GLY
57 H57 7.75 -2.5 0 H 18 GLY
58 O58 4.78641 -13.636 1.28296 O 19 GLY
59 O59 6.1395 -13.5972 1.92922 O 19 GLY
60 C60 3.75397 -12.1345 -1.49546 C 20 GLY
61 C61 3.74901 -11.991 -0.00233929 C 20 GLY
62 C62 3.74404 -11.8476 1.49078 C 20 GLY
63 C63 3.74499 -14.0982 -1.18166 C 21 GLY
64 C64 3.73853 -15.0072 0.0114866 C 21 GLY
65 C65 3.73207 -15.9163 1.20463 C 21 GLY
66 O66 6.05525 -12.6072 1.903 O 22 GLY
67 O67 7.03349 -12.5862 1.69659 O 22 GLY
68 O68 8.01173 -12.5653 1.49018 O 22 GLY
69 O69 8.98997 -12.5443 1.28377 O 22 GLY
70 O70 9.96821 -12.5234 1.07737 O 22 GLY
71 C71 10.0432 -13.4944 0.0143187 C 23 GLY
72 C72 9.92656 -13.5241 1.00705 C 23 GLY
73 C73 4.59154 -13.1371 -0.727973 C 24 GLY
74 C74 3.62286 -13.5348 0.346022 C 24 GLY
75 C75 2.65418 -13.9325 1.42002 C 24 GLY
76 O76 3.24682 -13.5052 0.0178212 O 24 GLY
77 C77 6.74985 -13.5038 -1.15435 C 25 GLY
78 C78 6.74103 -12.5038 -1.15126 C 25 GLY
79 H79 10.05 -14.5 0 H 26 GLY
80 O80 8.06111 -6.32325 0.861168 O 27 GLY
81 O81 9.54115 -6.35102 1.10347 O 27 GLY
82 C82 6.76423 -5.19669 -1.49254 C 28 GLY
83 C83 6.75793 -5.00784 -0.0044853 C 28 GLY
84 C84 6.75163 -4.819 1.48357 C 28 GLY
85 C85 6.76571 -8.68519 -1.33152 C 29 GLY
86 C86 6.74494 -8.00023 0.00279186 C 29 GLY
87 C87 6.72416 -7.31526 1.33711 C 29 GLY
88 O88 9.67896 -5.37192 1.25366 O 30 GLY
89 O89 10.5138 -5.39883 0.703847 O 30 GLY
90 O90 11.3487 -5.42573 0.154039 O 30 GLY
91 O91 12.1835 -5.45263 -0.395769 O 30 GLY
92 O92 13.0184 -5.47954 -0.945577 O 30 GLY
93 C93 13.0539 -6.50404 0.0101248 C 31 GLY
94 C94 13.0196 -6.48221 -0.989049 C 31 GLY
95 C95 7.339 -6.80059 -1.11343 C 32 GLY
96 C96 6.71615 -6.42358 0.198029 C 32 GLY
97 C97 6.09329 -6.04656 1.50948 C 32 GLY
98 O98 6.26139 -6.49079 0.00137019 O 32 GLY
99 C99 9.74985 -6.49392 -1.16107 C 33 GLY
100 C100 9.75646 -5.49406 -1.14572 C 33 GLY
101 H101 13.05 -7.5 0 H 34 GLY
102 C102 -3.75397 -2.16015 -1.45582 C 35 GLY
103 C103 -3.74956 -2.49813 0.00560001 C 35 GLY
104 C104 -3.74514 -2.8361 1.46702 C 35 GLY
105 C105 -0.753998 -2.1486 -1.46221 C 35 GLY
106 C106 -0.749586 -2.48657 -0.000785882 C 35 GLY
107 C107 -0.745173 -2.82455 1.46064 C 35 GLY
108 H108 -4.75 -2.5 0 H 36 GLY
109 H109 0.25 -2.5 0 H 37 GLY
110 O110 -3.5192 -13.3477 1.19753 O 38 GLY
111 O111 -2.07139 -13.297 0.808593 O 38 GLY
112 C112 -0.707638 -11.6837 -1.45233 C 39 GLY
113 C113 -0.74707 -12.0062 0.0120488 C 39 GLY
114 C114 -0.786502 -12.3287 1.47643 C 39 GLY
115 C115 -0.724688 -14.2202 -1.2749 C 40 GLY
116 C116 -0.74815 -15.0108 -0.000372404 C 40 GLY
117 C117 -0.771612 -15.8013 1.27416 C 40 GLY
118 O118 -6.9374 -12.5055 -0.997398 O 41 GLY
119 O119 -6.09698 -12.467 -0.456822 O 41 GLY
120 O120 -5.25656 -12.4286 0.0837545 O 41 GLY
121 O121 -4.41615 -12.3902 0.624331 O 41 GLY
122 O122 -3.57573 -12.3518 1.16491 O 41 GLY
123 C123 -6.99309 -13.5069 -1.00868 C 42 GLY
124 C124 -7.0579 -13.4919 -0.0108975 C 42 GLY
125 C125 -1.23973 -12.901 -1.09866 C 43 GLY
126 C126 -0.71939 -13.4864 0.180643 C 43 GLY
127 C127 -0.199046 -14.0717 1.45994 C 43 GLY
128 O128 -0.258395 -13.4988 -0.0125636 O 43 GLY
129 C129 -3.76045 -13.5 -1.17287 C 44 GLY
130 C130 -3.74962 -12.5002 -1.15949 C 44 GLY
131 H131 -7.05 -14.5 0 H 45 GLY
132 O132 -6.0445 -6.12105 2.04068 O 46 GLY
133 O133 -4.7996 -6.10009 1.20414 O 46 GLY
134 C134 -3.75048 -4.67811 -1.4701 C 47 GLY
135 C135 -3.74954 -5.00467 -0.00608365 C 47 GLY
136 C136 -3.7486 -5.33123 1.45794 C 47 GLY
137 C137 -3.73548 -8.63469 -1.36257 C 48 GLY
138 C138 -3.75187 -8.00295 -0.0021898 C 48 GLY
139 C139 -3.76826 -7.37121 1.35819 C 48 GLY
140 O140 -9.99648 -5.50263 0.972294 O 49 GLY
141 O141 -9.03276 -5.40927 1.22235 O 49 GLY
142 O142 -8.06904 -5.3159 1.4724 O 49 GLY
143 O143 -7.10532 -5.22254 1.72246 O 49 GLY
144 O144 -6.1416 -5.12918 1.97251 O 49 GLY
145 C145 -10.0572 -6.48853 0.983772 C 50 GLY
146 C146 -10.06 -6.50511 -0.0160863 C 50 GLY
147 C147 -4.59706 -6.42188 -0.833065 C 51 GLY
148 C148 -3.63663 -6.41305 0.319101 C 51 GLY
149 C149 -2.6762 -6.40422 1.47127 C 51 GLY
150 O150 -3.25583 -6.48055 0.00218678 O 51 GLY
151 C151 -6.75319 -6.49655 -1.15265 C 52 GLY
152 C152 -6.74675 -5.49671 -1.13568 C 52 GLY
153 H153 -10.05 -7.5 0 H 53 GLY
154 C154 2.49591 12.0044 5.49664 C 54 GLY
155 C155 2.50184 11.8803 6.23628 C 54 GLY
156 C156 2.50777 11.7562 6.97592 C 54 GLY
157 C157 1.49595 11.9982 5.50362 C 54 GLY
158 C158 1.50781 11.75 6.9829 C 54 GLY
159 C159 4.99781 12.0007 5.49389 C 55 GLY
160 C160 5.00072 11.9298 6.24053 C 55 GLY
161 C161 5.00364 11.8589 6.98716 C 55 GLY
162 C162 5.9978 11.9975 5.48968 C 55 GLY
163 C163 6.00362 11.8556 6.98295 C 55 GLY
164 C164 3.75978 13.3078 8.01323 C 56 GLY
165 C165 3.71584 13.0909 7.29661 C 56 GLY
166 C166 3.67189 12.8741 6.57999 C 56 GLY
167 C167 3.01181 13.23 6.51277 C 56 GLY
168 C168 4.30898 13.2456 6.42848 C 56 GLY
169 C169 2.36201 13.5764 6.44777 C 56 GLY
170 C170 4.9364 13.6075 6.2805 C 56 GLY
171 C171 3.84767 13.7415 9.44646 C 56 GLY
172 H172 3.33943 12.1027 6.94364 H 57 GLY
173 H173 4.15131 12.1738 6.88304 H 58 GLY
174 H174 4.754 13.3103 7.99815 H 59 GLY
175 C175 3.74255 15.9182 6.54093 C 60 GLY
176 C176 3.74614 16.321 7.98583 C 60 GLY
177 C177 3.74973 16.7238 9.43072 C 60 GLY
178 O178 1.75729 15.2944 4.39862 O 61 GLY
179 O179 1.64189 15.2956 3.4053 O 61 GLY
180 O180 5.73613 15.3152 4.39762 O 62 GLY
181 O181 5.76414 15.3134 3.39801 O 62 GLY
182 O182 1.70072 16.0493 3.29221 O 63 GLY
183 O183 2.70037 16.0538 3.31844 O 63 GLY
184 O184 3.70001 16.0582 3.34466 O 63 GLY
185 O185 4.69966 16.0627 3.37088 O 63 GLY
186 O186 5.69931 16.0671 3.39711 O 63 GLY
187 O187 1.69842 16.5493 3.29486 O 63 GLY
188 O188 2.69807 16.5537 3.32108 O 63 GLY
189 O189 3.69772 16.5582 3.3473 O 63 GLY
190 O190 4.69736 16.5627 3.37353 O 63 GLY
191 O191 5.69701 16.5671 3.39975 O 63 GLY
192 O192 1.68647 16.2966 3.79336 O 63 GLY
193 O193 2.68612 16.3011 3.81958 O 63 GLY
194 O194 3.68577 16.3055 3.8458 O 63 GLY
195 O195 4.68541 16.31 3.87203 O 63 GLY
196 O196 5.68506 16.3144 3.89825 O 63 GLY
197 O197 3.74845 15.2691 7.99222 O 64 GLY
198 H198 0.5 12 5.5 H 65 GLY
199 H199 7 12 5.5 H 66 GLY
200 H200 1.75 14.3 4.4 H 67 GLY
201 H201 5.75 14.3 4.4 H 68 GLY
202 H202 4.75 16.3 8 H 69 GLY
203 O203 6.85887 8.48559 6.88051 O 70 GLY
204 O204 8.07953 8.41458 7.74939 O 70 GLY
205 C205 5.98326 9.6354 4.00837 C 71 GLY
206 C206 5.99589 9.49193 5.50144 C 71 GLY
207 C207 6.00852 9.34845 6.99451 C 71 GLY
208 C208 5.99088 5.93312 4.11641 C 72 GLY
209 C209 5.98921 6.507 5.50229 C 72 GLY
210 C210 5.98753 7.08087 6.88817 C 72 GLY
211 O211 8.18538 9.41209 7.70143 O 73 GLY
212 O212 8.98718 9.31395 7.11195 O 73 GLY
213 O213 9.78898 9.21581 6.52248 O 73 GLY
214 O214 10.5908 9.11768 5.933 O 73 GLY
215 O215 11.3926 9.01954 5.34352 O 73 GLY
216 C216 12.3129 8.0016 5.50144 C 74 GLY
217 C217 11.3133 8.0212 5.47865 C 74 GLY
218 C218 6.90803 7.6299 4.91005 C 75 GLY
219 C219 5.83668 8.06146 5.86712 C 75 GLY
220 C220 4.76533 8.49301 6.82418 C 75 GLY
221 O221 5.49335 8.00575 5.50792 O 75 GLY
222 C222 8.98525 8.00021 4.36356 C 76 GLY
223 C223 8.98523 9 4.34343 C 76 GLY
224 H224 12.3 7 5.5 H 77 GLY
225 O225 -0.613722 7.81868 7.7792 O 78 GLY
226 O226 0.366176 7.88874 6.64567 O 78 GLY
227 C227 1.51411 9.74506 4.02833 C 79 GLY
228 C228 1.50853 9.50033 5.50822 C 79 GLY
229 C229 1.50295 9.2556 6.98811 C 79 GLY
230 C230 1.50261 6.79856 4.0355 C 80 GLY
231 C231 1.49129 6.49674 5.50478 C 80 GLY
232 C232 1.47998 6.19493 6.97406 C 80 GLY
233 O233 -3.83377 8.99951 5.45997 O 81 GLY
234 O234 -3.03198 8.95194 6.05567 O 81 GLY
235 O235 -2.23019 8.90437 6.65137 O 81 GLY
236 O236 -1.42839 8.8568 7.24708 O 81 GLY
237 O237 -0.626596 8.80923 7.84278 O 81 GLY
238 C238 -3.79806 8.00163 5.41923 C 82 GLY
239 C239 -4.79416 7.99056 5.5067 C 82 GLY
240 C240 0.675883 8.08897 4.65024 C 83 GLY
241 C241 1.61319 7.96565 5.81482 C 83 GLY
242 C242 2.5505 7.84232 6.9794 C 83 GLY
243 O243 2.00349 8.00778 5.50515 O 83 GLY
244 C244 -1.493 7.99087 4.34754 C 84 GLY
245 C245 -1.49557 8.99084 4.34125 C 84 GLY
246 H246 -4.8 7 5.5 H 85 GLY
247 H247 0.248706 -0.000205375 -0.000797999 H 0 GLY
248 H248 2.74387 0.00320689 -0.00101952 H 1 GLY
249 H249 0.23806 -0.335418 1.46123 H 0 GLY
250 H250 0.8879 0.282281 1.36446 H 3 GLY
251 H251 2.73957 0.174199 1.4892 H 1 GLY
252 H252 1.8841 0.331295 1.274 H 4 GLY
253 H253 1.33459 1.01388 1.06296 H 2 GLY
254 H254 1.5042 1.31255 2.52311 H 2 GLY
255 H255 2.50434 1.2971 2.48461 H 5 GLY
256 H256 1.67382 1.61123 3.98325 H 2 GLY
257 H257 1.51916 4.6079 3.96677 H 6 GLY
258 H258 -0.412673 3.30542 -2.09291 H 7 GLY
259 H259 -0.425875 4.06254 -2.18761 H 9 GLY
260 H260 3.49197 3.29663 -2.09959 H 8 GLY
261 H261 3.57378 4.03911 -2.1402 H 9 GLY
262 H262 1.50326 4.32511 2.49375 H 6 GLY
263 H263 1.49618 3.28097 2.5001 H 10 GLY
264 H264 -1.75 0 0 H 11 GLY
265 H265 -0.751268 0.00259733 -0.00743748 H 0 GLY
266 H266 4.75 0 0 H 12 GLY
267 H267 3.74378 -0.00987085 0.00337057 H 1 GLY
268 H268 -0.5 2.3 -1.1 H 13 GLY
269 H269 -0.499612 3.31326 -1.09673 H 7 GLY
270 H270 3.5 2.3 -1.1 H 14 GLY
271 H271 3.4984 3.30246 -1.09963 H 8 GLY
272 H272 2.5 4.3 2.5 H 15 GLY
273 H273 3.73457 -2.50903 -0.00091619 H 16 GLY
274 H274 2.75 -2.5 0 H 17 GLY
275 H275 6.73453 -2.49564 0.00250778 H 16 GLY
276 H276 7.75 -2.5 0 H 18 GLY
277 H277 6.1395 -13.5972 1.92922 H 19 GLY
278 H278 6.05525 -12.6072 1.903 H 22 GLY
279 H279 9.96821 -12.5234 1.07737 H 22 GLY
280 H280 9.92656 -13.5241 1.00705 H 23 GLY
281 H281 4.78641 -13.636 1.28296 H 19 GLY
282 H282 3.62286 -13.5348 0.346022 H 24 GLY
283 H283 10.05 -14.5 0 H 26 GLY
284 H284 10.0432 -13.4944 0.0143187 H 23 GLY
285 H285 3.25 -12 0 H 26 GLY
286 H286 3.74901 -11.991 -0.00233929 H 20 GLY
287 H287 3.25 -15 0 H 26 GLY
288 H288 3.73853 -15.0072 0.0114866 H 21 GLY
289 H289 3.24682 -13.5052 0.0178212 H 24 GLY
290 H290 4.25 -15 0 H 26 GLY
291 H291 6.75 -14.5 -1.15 H 26 GLY
292 H292 4.25 -12 0 H 26 GLY
293 H293 6.75 -11.5 -1.15 H 26 GLY
294 H294 6.74985 -13.5038 -1.15435 H 25 GLY
295 H295 6.74103 -12.5038 -1.15126 H 25 GLY
296 H296 9.54115 -6.35102 1.10347 H 27 GLY
297 H297 9.67896 -5.37192 1.25366 H 30 GLY
298 H298 13.0184 -5.47954 -0.945577 H 30 GLY
299 H299 13.0196 -6.48221 -0.989049 H 31 GLY
300 H300 8.06111 -6.32325 0.861168 H 27 GLY
301 H301 6.71615 -6.42358 0.198029 H 32 GLY
302 H302 13.05 -7.5 0 H 34 GLY
303 H303 13.0539 -6.50404 0.0101248 H 31 GLY
304 H304 6.25 -5 0 H 34 GLY
305 H305 6.75793 -5.00784 -0.0044853 H 28 GLY
306 H306 6.25 -8 0 H 34 GLY
307 H307 6.74494 -8.00023 0.00279186 H 29 GLY
308 H308 6.26139 -6.49079 0.00137019 H 32 GLY
309 H309 7.25 -8 0 H 34 GLY
310 H310 9.75 -7.5 -1.15 H 34 GLY
311 H311 7.25 -5 0 H 34 GLY
312 H312 9.75 -4.5 -1.15 H 34 GLY
313 H313 9.74985 -6.49392 -1.16107 H 33 GLY
314 H314 9.75646 -5.49406 -1.14572 H 33 GLY
315 H315 6.73208 -2.32619 1.4929 H 16 GLY
316 H316 6.75163 -4.819 1.48357 H 28 GLY
317 H317 3.73211 -2.33958 1.48948 H 16 GLY
318 H318 3.74404 -11.8476 1.49078 H 20 GLY
319 H319 -3.74956 -2.49813 0.00560001 H 35 GLY
320 H320 -4.75 -2.5 0 H 36 GLY
321 H321 -0.749586 -2.48657 -0.000785882 H 35 GLY
322 H322 0.25 -2.5 0 H 37 GLY
323 H323 -3.5192 -13.3477 1.19753 H 38 GLY
324 H324 -3.57573 -12.3518 1.16491 H 41 GLY
325 H325 -6.9374 -12.5055 -0.997398 H 41 GLY
326 H326 -6.99309 -13.5069 -1.00868 H 42 GLY
327 H327 -2.07139 -13.297 0.808593 H 38 GLY
328 H328 -0.71939 -13.4864 0.180643 H 43 GLY
329 H329 -7.05 -14.5 0 H 45 GLY
330 H330 -7.0579 -13.4919 -0.0108975 H 42 GLY
331 H331 -0.25 -12 0 H 45 GLY
332 H332 -0.74707 -12.0062 0.0120488 H 39 GLY
333 H333 -0.25 -15 0 H 45 GLY
334 H334 -0.74815 -15.0108 -0.000372404 H 40 GLY
335 H335 -0.258395 -13.4988 -0.0125636 H 43 GLY
336 H336 -1.25 -15 0 H 45 GLY
337 H337 -3.75 -14.5 -1.15 H 45 GLY
338 H338 -1.25 -12 0 H 45 GLY
339 H339 -3.75 -11.5 -1.15 H 45 GLY
340 H340 -3.76045 -13.5 -1.17287 H 44 GLY
341 H341 -3.74962 -12.5002 -1.15949 H 44 GLY
342 H342 -6.0445 -6.12105 2.04068 H 46 GLY
343 H343 -6.1416 -5.12918 1.97251 H 49 GLY
344 H344 -9.99648 -5.50263 0.972294 H 49 GLY
345 H345 -10.0572 -6.48853 0.983772 H 50 GLY
346 H346 -4.7996 -6.10009 1.20414 H 46 GLY
347 H347 -3.63663 -6.41305 0.319101 H 51 GLY
348 H348 -10.05 -7.5 0 H 53 GLY
349 H349 -10.06 -6.50511 -0.0160863 H 50 GLY
350 H350 -3.25 -5 0 H 53 GLY
351 H351 -3.74954 -5.00467 -0.00608365 H 47 GLY
352 H352 -3.25 -8 0 H 53 GLY
353 H353 -3.75187 -8.00295 -0.0021898 H 48 GLY
354 H354 -3.25583 -6.48055 0.00218678 H 51 GLY
355 H355 -4.25 -8 0 H 53 GLY
356 H356 -6.75 -7.5 -1.15 H 53 GLY
357 H357 -4.25 -5 0 H 53 GLY
358 H358 -6.75 -4.5 -1.15 H 53 GLY
359 H359 -6.75319 -6.49655 -1.15265 H 52 GLY
360 H360 -6.74675 -5.49671 -1.13568 H 52 GLY
361 H361 -3.74514 -2.8361 1.46702 H 35 GLY
362 H362 -3.7486 -5.33123 1.45794 H 47 GLY
363 H363 -0.745173 -2.82455 1.46064 H 35 GLY
364 H364 -0.786502 -12.3287 1.47643 H 39 GLY
365 H365 2.49591 12.0044 5.49664 H 54 GLY
366 H366 4.99781 12.0007 5.49389 H 55 GLY
367 H367 2.50777 11.7562 6.97592 H 54 GLY
368 H368 3.33943 12.1027 6.94364 H 57 GLY
369 H369 5.00364 11.8589 6.98716 H 55 GLY
370 H370 4.15131 12.1738 6.88304 H 58 GLY
371 H371 3.67189 12.8741 6.57999 H 56 GLY
372 H372 3.75978 13.3078 8.01323 H 56 GLY
373 H373 4.754 13.3103 7.99815 H 59 GLY
374 H374 3.84767 13.7415 9.44646 H 56 GLY
375 H375 3.74973 16.7238 9.43072 H 60 GLY
376 H376 1.64189 15.2956 3.4053 H 61 GLY
377 H377 1.70072 16.0493 3.29221 H 63 GLY
378 H378 5.76414 15.3134 3.39801 H 62 GLY
379 H379 5.69931 16.0671 3.39711 H 63 GLY
380 H380 3.74614 16.321 7.98583 H 60 GLY
381 H381 3.74845 15.2691 7.99222 H 64 GLY
382 H382 0.5 12 5.5 H 65 GLY
383 H383 1.49595 11.9982 5.50362 H 54 GLY
384 H384 7 12 5.5 H 66 GLY
385 H385 5.9978 11.9975 5.48968 H 55 GLY
386 H386 1.75 14.3 4.4 H 67 GLY
387 H387 1.75729 15.2944 4.39862 H 61 GLY
388 H388 5.75 14.3 4.4 H 68 GLY
389 H389 5.73613 15.3152 4.39762 H 62 GLY
390 H390 4.75 16.3 8 H 69 GLY
391 H391 8.07953 8.41458 7.74939 H 70 GLY
392 H392 8.18538 9.41209 7.70143 H 73 GLY
393 H393 11.3926 9.01954 5.34352 H 73 GLY
394 H394 11.3133 8.0212 5.47865 H 74 GLY
395 H395 6.85887 8.48559 6.88051 H 70 GLY
396 H396 5.83668 8.06146 5.86712 H 75 GLY
397 H397 12.3 7 5.5 H 77 GLY
398 H398 12.3129 8.0016 5.50144 H 74 GLY
399 H399 5.5 9.5 5.5 H 77 GLY
400 H400 5.99589 9.49193 5.50144 H 71 GLY
401 H401 5.5 6.5 5.5 H 77 GLY
402 H402 5.98921 6.507 5.50229 H 72 GLY
403 H403 5.49335 8.00575 5.50792 H 75 GLY
404 H404 6.5 6.5 5.5 H 77 GLY
405 H405 9 7 4.35 H 77 GLY
406 H406 6.5 9.5 5.5 H 77 GLY
407 H407 9 10 4.35 H 77 GLY
408 H408 8.98525 8.00021 4.36356 H 76 GLY
409 H409 8.98523 9 4.34343 H 76 GLY
410 H410 -0.613722 7.81868 7.7792 H 78 GLY
411 H411 -0.626596 8.80923 7.84278 H 81 GLY
412 H412 -3.83377 8.99951 5.45997 H 81 GLY
413 H413 -3.79806 8.00163 5.41923 H 82 GLY
414 H414 0.366176 7.88874 6.64567 H 78 GLY
415 H415 1.61319 7.96565 5.81482 H 83 GLY
416 H416 -4.8 7 5.5 H 85 GLY
417 H417 -4.79416 7.99056 5.5067 H 82 GLY
418 H418 2 9.5 5.5 H 85 GLY
419 H419 1.50853 9.50033 5.50822 H 79 GLY
420 H420 2 6.5 5.5 H 85 GLY
421 H421 1.49129 6.49674 5.50478 H 80 GLY
422 H422 2.00349 8.00778 5.50515 H 83 GLY
423 H423 1 6.5 5.5 H 85 GLY
424 H424 -1.5 7 4.35 H 85 GLY
425 H425 1 9.5 5.5 H 85 GLY
426 H426 -1.5 10 4.35 H 85 GLY
427 H427 -1.493 7.99087 4.34754 H 84 GLY
428 H428 -1.49557 8.99084 4.34125 H 84 GLY
429 H429 -0.761915 -0.332616 1.45459 H 0 GLY
430 H430 3.73947 0.161122 1.49359 H 1 GLY
431 H431 1.50261 6.79856 4.0355 H 80 GLY
432 H432 1.50781 11.75 6.9829 H 54 GLY
433 H433 1.50295 9.2556 6.98811 H 79 GLY
434 H434 6.00362 11.8556 6.98295 H 55 GLY
435 H435 6.00852 9.34845 6.99451 H 71 GLY
@<TRIPOS>BOND
1 247 248 1
2 254 255 1
3 258 259 1
4 260 261 1
5 262 272 1
6 264 265 1
7 266 267 1
8 268 269 1
9 270 271 1
10 273 274 1
11 275 276 1
12 277 278 1
13 279 280 1
14 281 282 1
15 283 284 1
16 285 286 1
17 285 289 1
18 285 289 1
19 287 288 1
20 287 289 1
21 287 289 1
22 290 291 1
23 291 294 1
24 292 293 1
25 293 295 1
26 296 297 1
27 298 299 1
28 300 301 1
29 302 303 1
30 304 305 1
31 304 308 1
32 304 308 1
33 306 307 1
34 306 308 1
35 306 308 1
36 309 310 1
37 310 313 1
38 311 312 1
39 312 314 1
40 319 320 1
41 321 322 1
42 323 324 1
43 325 326 1
44 327 328 1
45 329 330 1
46 331 332 1
47 331 335 1
48 331 335 1
49 333 334 1
50 333 335 1
51 333 335 1
52 336 337 1
53 337 340 1
54 338 339 1
55 339 341 1
56 342 343 1
57 344 345 1
58 346 347 1
59 348 349 1
60 350 351 1
61 350 354 1
62 350 354 1
63 352 353 1
64 352 354 1
65 352 354 1
66 355 356 1
67 356 359 1
68 357 358 1
69 358 360 1
70 365 366 1
71 372 373 1
72 376 377 1
73 378 379 1
74 380 390 1
75 382 383 1
76 384 385 1
77 386 387 1
78 388 389 1
79 391 392 1
80 393 394 1
81 395 396 1
82 397 398 1
83 399 400 1
84 399 403 1
85 399 403 1
86 401 402 1
87 401 403 1
88 401 403 1
89 404 405 1
90 405 408 1
91 406 407 1
92 407 409 1
93 410 411 1
94 412 413 1
95 414 415 1
96 416 417 1
97 418 419 1
98 418 422 1
99 418 422 1
100 420 421 1
101 420 422 1
102 420 422 1
103 423 424 1
104 424 427 1
105 425 426 1
106 426 428 1
