#
#
#

#
#

@<TRIPOS>MOLECULE
Panda
435 160
SMALL
NO CHARGES


@<TRIPOS>ATOM
1 C1 0.248706 -0.000205375 -0.000797999 C 0 ALA
2 C2 0.243383 -0.167812 0.730215 C 0 ALA
3 C3 0.23806 -0.335418 1.46123 C 0 ALA
4 C4 -0.751268 0.00259733 -0.00743748 C 0 ALA
5 C5 -0.761915 -0.332616 1.45459 C 0 ALA
6 C6 2.74387 0.00320689 -0.00101952 C 1 ARG
7 C7 2.74172 0.0887031 0.744088 C 1 ARG
8 C8 2.73957 0.174199 1.4892 C 1 ARG
9 C9 3.74378 -0.00987085 0.00337057 C 1 ARG
10 C10 3.73947 0.161122 1.49359 C 1 ARG
11 C11 1.5042 1.31255 2.52311 C 2 ASN
12 C12 1.4194 1.16321 1.79303 C 2 ASN
13 C13 1.33459 1.01388 1.06296 C 2 ASN
14 C14 0.676969 1.38053 1.06435 C 2 ASN
15 C15 1.96797 1.39197 0.912045 C 2 ASN
16 C16 0.0295997 1.73747 1.06654 C 2 ASN
17 C17 2.59173 1.76018 0.764269 C 2 ASN
18 C18 1.67382 1.61123 3.98325 C 2 ASN
19 H19 0.8879 0.282281 1.36446 H 3 ASP
20 H20 1.8841 0.331295 1.274 H 4 ASP
21 H21 2.50434 1.2971 2.48461 H 5 GLY
22 C22 1.48736 4.04232 1.02073 C 6 THY
23 C23 1.50326 4.32511 2.49375 C 6 THY
24 C24 1.51916 4.6079 3.96677 C 6 THY
25 O25 -0.499612 3.31326 -1.09673 O 7 ALA
26 O26 -0.412673 3.30542 -2.09291 O 7 ALA
27 O27 3.4984 3.30246 -1.09963 O 8 ALA
28 O28 3.49197 3.29663 -2.09959 O 8 ALA
29 O29 -0.425875 4.06254 -2.18761 O 9 ALA
30 O30 0.574038 4.05668 -2.17576 O 9 ALA
31 O31 1.57395 4.05083 -2.16391 O 9 ALA
32 O32 2.57386 4.04497 -2.15205 O 9 ALA
33 O33 3.57378 4.03911 -2.1402 O 9 ALA
34 O34 -0.422398 4.56028 -2.23494 O 9 ALA
35 O35 0.577515 4.55443 -2.22308 O 9 ALA
36 O36 1.57743 4.54857 -2.21123 O 9 ALA
37 O37 2.57734 4.54271 -2.19938 O 9 ALA
38 O38 3.57725 4.53686 -2.18752 O 9 ALA
39 O39 -0.42976 4.35877 -1.71356 O 9 ALA
40 O40 0.570153 4.35292 -1.7017 O 9 ALA
41 O41 1.57007 4.34706 -1.68985 O 9 ALA
42 O42 2.56998 4.3412 -1.67799 O 9 ALA
43 O43 3.56989 4.33534 -1.66614 O 9 ALA
44 O44 1.49618 3.28097 2.5001 O 10 GLY
45 H45 -1.75 0 0 H 11 GLY
46 H46 4.75 0 0 H 12 GLY
47 H47 -0.5 2.3 -1.1 H 13 GLY
48 H48 3.5 2.3 -1.1 H 14 GLY
49 H49 2.5 4.3 2.5 H 15 GLY
50 C50 3.73702 -2.67847 -1.49131 C 16 ASP
51 C51 3.73457 -2.50903 -0.00091619 C 16 ASP
52 C52 3.73211 -2.33958 1.48948 C 16 ASP
53 C53 6.73699 -2.66509 -1.48789 C 16 ASP
54 C54 6.73453 -2.49564 0.00250778 C 16 ASP
55 C55 6.73208 -2.32619 1.4929 C 16 ASP
56 H56 2.75 -2.5 0 H 17 GLY
57 H57 7.75 -2.5 0 H 18 GLY
58 O58 4.78641 -13.636 1.28296 O 19 ASP
59 O59 6.1395 -13.5972 1.92922 O 19 ASP
60 C60 3.75397 -12.1345 -1.49546 C 20 ASN
61 C61 3.74901 -11.991 -0.00233929 C 20 ASN
62 C62 3.74404 -11.8476 1.49078 C 20 ASN
63 C63 3.74499 -14.0982 -1.18166 C 21 ASP
64 C64 3.73853 -15.0072 0.0114866 C 21 ASP
65 C65 3.73207 -15.9163 1.20463 C 21 ASP
66 O66 6.05525 -12.6072 1.903 O 22 ARG
67 O67 7.03349 -12.5862 1.69659 O 22 ARG
68 O68 8.01173 -12.5653 1.49018 O 22 ARG
69 O69 8.98997 -12.5443 1.28377 O 22 ARG
70 O70 9.96821 -12.5234 1.07737 O 22 ARG
71 C71 10.0432 -13.4944 0.0143187 C 23 ASN
72 C72 9.92656 -13.5241 1.00705 C 23 ASN
73 C73 4.59154 -13.1371 -0.727973 C 24 ARG
74 C74 3.62286 -13.5348 0.346022 C 24 ARG
75 C75 2.65418 -13.9325 1.42002 C 24 ARG
76 O76 3.24682 -13.5052 0.0178212 O 24 ARG
77 C77 6.74985 -13.5038 -1.15435 C 25 GLY
78 C78 6.74103 -12.5038 -1.15126 C 25 GLY
79 H79 10.05 -14.5 0 H 26 GLY
80 O80 8.06111 -6.32325 0.861168 O 27 ASP
81 O81 9.54115 -6.35102 1.10347 O 27 ASP
82 C82 6.76423 -5.19669 -1.49254 C 28 ASN
83 C83 6.75793 -5.00784 -0.0044853 C 28 ASN
84 C84 6.75163 -4.819 1.48357 C 28 ASN
85 C85 6.76571 -8.68519 -1.33152 C 29 ASP
86 C86 6.74494 -8.00023 0.00279186 C 29 ASP
87 C87 6.72416 -7.31526 1.33711 C 29 ASP
88 O88 9.67896 -5.37192 1.25366 O 30 ARG
89 O89 10.5138 -5.39883 0.703847 O 30 ARG
90 O90 11.3487 -5.42573 0.154039 O 30 ARG
91 O91 12.1835 -5.45263 -0.395769 O 30 ARG
92 O92 13.0184 -5.47954 -0.945577 O 30 ARG
93 C93 13.0539 -6.50404 0.0101248 C 31 ASN
94 C94 13.0196 -6.48221 -0.989049 C 31 ASN
95 C95 7.339 -6.80059 -1.11343 C 32 ARG
96 C96 6.71615 -6.42358 0.198029 C 32 ARG
97 C97 6.09329 -6.04656 1.50948 C 32 ARG
98 O98 6.26139 -6.49079 0.00137019 O 32 ARG
99 C99 9.74985 -6.49392 -1.16107 C 33 GLY
100 C100 9.75646 -5.49406 -1.14572 C 33 GLY
101 H101 13.05 -7.5 0 H 34 GLY
102 C102 -3.75397 -2.16015 -1.45582 C 35 ASP
103 C103 -3.74956 -2.49813 0.00560001 C 35 ASP
104 C104 -3.74514 -2.8361 1.46702 C 35 ASP
105 C105 -0.753998 -2.1486 -1.46221 C 35 ASP
106 C106 -0.749586 -2.48657 -0.000785882 C 35 ASP
107 C107 -0.745173 -2.82455 1.46064 C 35 ASP
108 H108 -4.75 -2.5 0 H 36 GLY
109 H109 0.25 -2.5 0 H 37 GLY
110 O110 -3.5192 -13.3477 1.19753 O 38 ASP
111 O111 -2.07139 -13.297 0.808593 O 38 ASP
112 C112 -0.707638 -11.6837 -1.45233 C 39 ASN
113 C113 -0.74707 -12.0062 0.0120488 C 39 ASN
114 C114 -0.786502 -12.3287 1.47643 C 39 ASN
115 C115 -0.724688 -14.2202 -1.2749 C 40 ASP
116 C116 -0.74815 -15.0108 -0.000372404 C 40 ASP
117 C117 -0.771612 -15.8013 1.27416 C 40 ASP
118 O118 -6.9374 -12.5055 -0.997398 O 41 ARG
119 O119 -6.09698 -12.467 -0.456822 O 41 ARG
120 O120 -5.25656 -12.4286 0.0837545 O 41 ARG
121 O121 -4.41615 -12.3902 0.624331 O 41 ARG
122 O122 -3.57573 -12.3518 1.16491 O 41 ARG
123 C123 -6.99309 -13.5069 -1.00868 C 42 ASN
124 C124 -7.0579 -13.4919 -0.0108975 C 42 ASN
125 C125 -1.23973 -12.901 -1.09866 C 43 ARG
126 C126 -0.71939 -13.4864 0.180643 C 43 ARG
127 C127 -0.199046 -14.0717 1.45994 C 43 ARG
128 O128 -0.258395 -13.4988 -0.0125636 O 43 ARG
129 C129 -3.76045 -13.5 -1.17287 C 44 GLY
130 C130 -3.74962 -12.5002 -1.15949 C 44 GLY
131 H131 -7.05 -14.5 0 H 45 GLY
132 O132 -6.0445 -6.12105 2.04068 O 46 ASP
133 O133 -4.7996 -6.10009 1.20414 O 46 ASP
134 C134 -3.75048 -4.67811 -1.4701 C 47 ASN
135 C135 -3.74954 -5.00467 -0.00608365 C 47 ASN
136 C136 -3.7486 -5.33123 1.45794 C 47 ASN
137 C137 -3.73548 -8.63469 -1.36257 C 48 ASP
138 C138 -3.75187 -8.00295 -0.0021898 C 48 ASP
139 C139 -3.76826 -7.37121 1.35819 C 48 ASP
140 O140 -9.99648 -5.50263 0.972294 O 49 ARG
141 O141 -9.03276 -5.40927 1.22235 O 49 ARG
142 O142 -8.06904 -5.3159 1.4724 O 49 ARG
143 O143 -7.10532 -5.22254 1.72246 O 49 ARG
144 O144 -6.1416 -5.12918 1.97251 O 49 ARG
145 C145 -10.0572 -6.48853 0.983772 C 50 ASN
146 C146 -10.06 -6.50511 -0.0160863 C 50 ASN
147 C147 -4.59706 -6.42188 -0.833065 C 51 ARG
148 C148 -3.63663 -6.41305 0.319101 C 51 ARG
149 C149 -2.6762 -6.40422 1.47127 C 51 ARG
150 O150 -3.25583 -6.48055 0.00218678 O 51 ARG
151 C151 -6.75319 -6.49655 -1.15265 C 52 GLY
152 C152 -6.74675 -5.49671 -1.13568 C 52 GLY
153 H153 -10.05 -7.5 0 H 53 GLY
154 C154 2.49591 12.0044 5.49664 C 54 ALA
155 C155 2.50184 11.8803 6.23628 C 54 ALA
156 C156 2.50777 11.7562 6.97592 C 54 ALA
157 C157 1.49595 11.9982 5.50362 C 54 ALA
158 C158 1.50781 11.75 6.9829 C 54 ALA
159 C159 4.99781 12.0007 5.49389 C 55 ARG
160 C160 5.00072 11.9298 6.24053 C 55 ARG
161 C161 5.00364 11.8589 6.98716 C 55 ARG
162 C162 5.9978 11.9975 5.48968 C 55 ARG
163 C163 6.00362 11.8556 6.98295 C 55 ARG
164 C164 3.75978 13.3078 8.01323 C 56 ASN
165 C165 3.71584 13.0909 7.29661 C 56 ASN
166 C166 3.67189 12.8741 6.57999 C 56 ASN
167 C167 3.01181 13.23 6.51277 C 56 ASN
168 C168 4.30898 13.2456 6.42848 C 56 ASN
169 C169 2.36201 13.5764 6.44777 C 56 ASN
170 C170 4.9364 13.6075 6.2805 C 56 ASN
171 C171 3.84767 13.7415 9.44646 C 56 ASN
172 H172 3.33943 12.1027 6.94364 H 57 ASP
173 H173 4.15131 12.1738 6.88304 H 58 ASP
174 H174 4.754 13.3103 7.99815 H 59 GLY
175 C175 3.74255 15.9182 6.54093 C 60 THY
176 C176 3.74614 16.321 7.98583 C 60 THY
177 C177 3.74973 16.7238 9.43072 C 60 THY
178 O178 1.75729 15.2944 4.39862 O 61 ALA
179 O179 1.64189 15.2956 3.4053 O 61 ALA
180 O180 5.73613 15.3152 4.39762 O 62 ALA
181 O181 5.76414 15.3134 3.39801 O 62 ALA
182 O182 1.70072 16.0493 3.29221 O 63 ALA
183 O183 2.70037 16.0538 3.31844 O 63 ALA
184 O184 3.70001 16.0582 3.34466 O 63 ALA
185 O185 4.69966 16.0627 3.37088 O 63 ALA
186 O186 5.69931 16.0671 3.39711 O 63 ALA
187 O187 1.69842 16.5493 3.29486 O 63 ALA
188 O188 2.69807 16.5537 3.32108 O 63 ALA
189 O189 3.69772 16.5582 3.3473 O 63 ALA
190 O190 4.69736 16.5627 3.37353 O 63 ALA
191 O191 5.69701 16.5671 3.39975 O 63 ALA
192 O192 1.68647 16.2966 3.79336 O 63 ALA
193 O193 2.68612 16.3011 3.81958 O 63 ALA
194 O194 3.68577 16.3055 3.8458 O 63 ALA
195 O195 4.68541 16.31 3.87203 O 63 ALA
196 O196 5.68506 16.3144 3.89825 O 63 ALA
197 O197 3.74845 15.2691 7.99222 O 64 GLY
198 H198 0.5 12 5.5 H 65 GLY
199 H199 7 12 5.5 H 66 GLY
200 H200 1.75 14.3 4.4 H 67 GLY
201 H201 5.75 14.3 4.4 H 68 GLY
202 H202 4.75 16.3 8 H 69 GLY
203 O203 6.85887 8.48559 6.88051 O 70 ASP
204 O204 8.07953 8.41458 7.74939 O 70 ASP
205 C205 5.98326 9.6354 4.00837 C 71 ASN
206 C206 5.99589 9.49193 5.50144 C 71 ASN
207 C207 6.00852 9.34845 6.99451 C 71 ASN
208 C208 5.99088 5.93312 4.11641 C 72 ASP
209 C209 5.98921 6.507 5.50229 C 72 ASP
210 C210 5.98753 7.08087 6.88817 C 72 ASP
211 O211 8.18538 9.41209 7.70143 O 73 ARG
212 O212 8.98718 9.31395 7.11195 O 73 ARG
213 O213 9.78898 9.21581 6.52248 O 73 ARG
214 O214 10.5908 9.11768 5.933 O 73 ARG
215 O215 11.3926 9.01954 5.34352 O 73 ARG
216 C216 12.3129 8.0016 5.50144 C 74 ASN
217 C217 11.3133 8.0212 5.47865 C 74 ASN
218 C218 6.90803 7.6299 4.91005 C 75 ARG
219 C219 5.83668 8.06146 5.86712 C 75 ARG
220 C220 4.76533 8.49301 6.82418 C 75 ARG
221 O221 5.49335 8.00575 5.50792 O 75 ARG
222 C222 8.98525 8.00021 4.36356 C 76 GLY
223 C223 8.98523 9 4.34343 C 76 GLY
224 H224 12.3 7 5.5 H 77 GLY
225 O225 -0.613722 7.81868 7.7792 O 78 ASP
226 O226 0.366176 7.88874 6.64567 O 78 ASP
227 C227 1.51411 9.74506 4.02833 C 79 ASN
228 C228 1.50853 9.50033 5.50822 C 79 ASN
229 C229 1.50295 9.2556 6.98811 C 79 ASN
230 C230 1.50261 6.79856 4.0355 C 80 ASP
231 C231 1.49129 6.49674 5.50478 C 80 ASP
232 C232 1.47998 6.19493 6.97406 C 80 ASP
233 O233 -3.83377 8.99951 5.45997 O 81 ARG
234 O234 -3.03198 8.95194 6.05567 O 81 ARG
235 O235 -2.23019 8.90437 6.65137 O 81 ARG
236 O236 -1.42839 8.8568 7.24708 O 81 ARG
237 O237 -0.626596 8.80923 7.84278 O 81 ARG
238 C238 -3.79806 8.00163 5.41923 C 82 ASN
239 C239 -4.79416 7.99056 5.5067 C 82 ASN
240 C240 0.675883 8.08897 4.65024 C 83 ARG
241 C241 1.61319 7.96565 5.81482 C 83 ARG
242 C242 2.5505 7.84232 6.9794 C 83 ARG
243 O243 2.00349 8.00778 5.50515 O 83 ARG
244 C244 -1.493 7.99087 4.34754 C 84 GLY
245 C245 -1.49557 8.99084 4.34125 C 84 GLY
246 H246 -4.8 7 5.5 H 85 GLY
247 H247 0.248706 -0.000205375 -0.000797999 H 0 ALA
248 H248 2.74387 0.00320689 -0.00101952 H 1 ARG
249 H249 0.23806 -0.335418 1.46123 H 0 ALA
250 H250 0.8879 0.282281 1.36446 H 3 ASP
251 H251 2.73957 0.174199 1.4892 H 1 ARG
252 H252 1.8841 0.331295 1.274 H 4 ASP
253 H253 1.33459 1.01388 1.06296 H 2 ASN
254 H254 1.5042 1.31255 2.52311 H 2 ASN
255 H255 2.50434 1.2971 2.48461 H 5 GLY
256 H256 1.67382 1.61123 3.98325 H 2 ASN
257 H257 1.51916 4.6079 3.96677 H 6 THY
258 H258 -0.412673 3.30542 -2.09291 H 7 ALA
259 H259 -0.425875 4.06254 -2.18761 H 9 ALA
260 H260 3.49197 3.29663 -2.09959 H 8 ALA
261 H261 3.57378 4.03911 -2.1402 H 9 ALA
262 H262 1.50326 4.32511 2.49375 H 6 THY
263 H263 1.49618 3.28097 2.5001 H 10 GLY
264 H264 -1.75 0 0 H 11 GLY
265 H265 -0.751268 0.00259733 -0.00743748 H 0 ALA
266 H266 4.75 0 0 H 12 GLY
267 H267 3.74378 -0.00987085 0.00337057 H 1 ARG
268 H268 -0.5 2.3 -1.1 H 13 GLY
269 H269 -0.499612 3.31326 -1.09673 H 7 ALA
270 H270 3.5 2.3 -1.1 H 14 GLY
271 H271 3.4984 3.30246 -1.09963 H 8 ALA
272 H272 2.5 4.3 2.5 H 15 GLY
273 H273 3.73457 -2.50903 -0.00091619 H 16 ASP
274 H274 2.75 -2.5 0 H 17 GLY
275 H275 6.73453 -2.49564 0.00250778 H 16 ASP
276 H276 7.75 -2.5 0 H 18 GLY
277 H277 6.1395 -13.5972 1.92922 H 19 ASP
278 H278 6.05525 -12.6072 1.903 H 22 ARG
279 H279 9.96821 -12.5234 1.07737 H 22 ARG
280 H280 9.92656 -13.5241 1.00705 H 23 ASN
281 H281 4.78641 -13.636 1.28296 H 19 ASP
282 H282 3.62286 -13.5348 0.346022 H 24 ARG
283 H283 10.05 -14.5 0 H 26 GLY
284 H284 10.0432 -13.4944 0.0143187 H 23 ASN
285 H285 3.25 -12 0 H 26 GLY
286 H286 3.74901 -11.991 -0.00233929 H 20 ASN
287 H287 3.25 -15 0 H 26 GLY
288 H288 3.73853 -15.0072 0.0114866 H 21 ASP
289 H289 3.24682 -13.5052 0.0178212 H 24 ARG
290 H290 4.25 -15 0 H 26 GLY
291 H291 6.75 -14.5 -1.15 H 26 GLY
292 H292 4.25 -12 0 H 26 GLY
293 H293 6.75 -11.5 -1.15 H 26 GLY
294 H294 6.74985 -13.5038 -1.15435 H 25 GLY
295 H295 6.74103 -12.5038 -1.15126 H 25 GLY
296 H296 9.54115 -6.35102 1.10347 H 27 ASP
297 H297 9.67896 -5.37192 1.25366 H 30 ARG
298 H298 13.0184 -5.47954 -0.945577 H 30 ARG
299 H299 13.0196 -6.48221 -0.989049 H 31 ASN
300 H300 8.06111 -6.32325 0.861168 H 27 ASP
301 H301 6.71615 -6.42358 0.198029 H 32 ARG
302 H302 13.05 -7.5 0 H 34 GLY
303 H303 13.0539 -6.50404 0.0101248 H 31 ASN
304 H304 6.25 -5 0 H 34 GLY
305 H305 6.75793 -5.00784 -0.0044853 H 28 ASN
306 H306 6.25 -8 0 H 34 GLY
307 H307 6.74494 -8.00023 0.00279186 H 29 ASP
308 H308 6.26139 -6.49079 0.00137019 H 32 ARG
309 H309 7.25 -8 0 H 34 GLY
310 H310 9.75 -7.5 -1.15 H 34 GLY
311 H311 7.25 -5 0 H 34 GLY
312 H312 9.75 -4.5 -1.15 H 34 GLY
313 H313 9.74985 -6.49392 -1.16107 H 33 GLY
314 H314 9.75646 -5.49406 -1.14572 H 33 GLY
315 H315 6.73208 -2.32619 1.4929 H 16 ASP
316 H316 6.75163 -4.819 1.48357 H 28 ASN
317 H317 3.73211 -2.33958 1.48948 H 16 ASP
318 H318 3.74404 -11.8476 1.49078 H 20 ASN
319 H319 -3.74956 -2.49813 0.00560001 H 35 ASP
320 H320 -4.75 -2.5 0 H 36 GLY
321 H321 -0.749586 -2.48657 -0.000785882 H 35 ASP
322 H322 0.25 -2.5 0 H 37 GLY
323 H323 -3.5192 -13.3477 1.19753 H 38 ASP
324 H324 -3.57573 -12.3518 1.16491 H 41 ARG
325 H325 -6.9374 -12.5055 -0.997398 H 41 ARG
326 H326 -6.99309 -13.5069 -1.00868 H 42 ASN
327 H327 -2.07139 -13.297 0.808593 H 38 ASP
328 H328 -0.71939 -13.4864 0.180643 H 43 ARG
329 H329 -7.05 -14.5 0 H 45 GLY
330 H330 -7.0579 -13.4919 -0.0108975 H 42 ASN
331 H331 -0.25 -12 0 H 45 GLY
332 H332 -0.74707 -12.0062 0.0120488 H 39 ASN
333 H333 -0.25 -15 0 H 45 GLY
334 H334 -0.74815 -15.0108 -0.000372404 H 40 ASP
335 H335 -0.258395 -13.4988 -0.0125636 H 43 ARG
336 H336 -1.25 -15 0 H 45 GLY
337 H337 -3.75 -14.5 -1.15 H 45 GLY
338 H338 -1.25 -12 0 H 45 GLY
339 H339 -3.75 -11.5 -1.15 H 45 GLY
340 H340 -3.76045 -13.5 -1.17287 H 44 GLY
341 H341 -3.74962 -12.5002 -1.15949 H 44 GLY
342 H342 -6.0445 -6.12105 2.04068 H 46 ASP
343 H343 -6.1416 -5.12918 1.97251 H 49 ARG
344 H344 -9.99648 -5.50263 0.972294 H 49 ARG
345 H345 -10.0572 -6.48853 0.983772 H 50 ASN
346 H346 -4.7996 -6.10009 1.20414 H 46 ASP
347 H347 -3.63663 -6.41305 0.319101 H 51 ARG
348 H348 -10.05 -7.5 0 H 53 GLY
349 H349 -10.06 -6.50511 -0.0160863 H 50 ASN
350 H350 -3.25 -5 0 H 53 GLY
351 H351 -3.74954 -5.00467 -0.00608365 H 47 ASN
352 H352 -3.25 -8 0 H 53 GLY
353 H353 -3.75187 -8.00295 -0.0021898 H 48 ASP
354 H354 -3.25583 -6.48055 0.00218678 H 51 ARG
355 H355 -4.25 -8 0 H 53 GLY
356 H356 -6.75 -7.5 -1.15 H 53 GLY
357 H357 -4.25 -5 0 H 53 GLY
358 H358 -6.75 -4.5 -1.15 H 53 GLY
359 H359 -6.75319 -6.49655 -1.15265 H 52 GLY
360 H360 -6.74675 -5.49671 -1.13568 H 52 GLY
361 H361 -3.74514 -2.8361 1.46702 H 35 ASP
362 H362 -3.7486 -5.33123 1.45794 H 47 ASN
363 H363 -0.745173 -2.82455 1.46064 H 35 ASP
364 H364 -0.786502 -12.3287 1.47643 H 39 ASN
365 H365 2.49591 12.0044 5.49664 H 54 ALA
366 H366 4.99781 12.0007 5.49389 H 55 ARG
367 H367 2.50777 11.7562 6.97592 H 54 ALA
368 H368 3.33943 12.1027 6.94364 H 57 ASP
369 H369 5.00364 11.8589 6.98716 H 55 ARG
370 H370 4.15131 12.1738 6.88304 H 58 ASP
371 H371 3.67189 12.8741 6.57999 H 56 ASN
372 H372 3.75978 13.3078 8.01323 H 56 ASN
373 H373 4.754 13.3103 7.99815 H 59 GLY
374 H374 3.84767 13.7415 9.44646 H 56 ASN
375 H375 3.74973 16.7238 9.43072 H 60 THY
376 H376 1.64189 15.2956 3.4053 H 61 ALA
377 H377 1.70072 16.0493 3.29221 H 63 ALA
378 H378 5.76414 15.3134 3.39801 H 62 ALA
379 H379 5.69931 16.0671 3.39711 H 63 ALA
380 H380 3.74614 16.321 7.98583 H 60 THY
381 H381 3.74845 15.2691 7.99222 H 64 GLY
382 H382 0.5 12 5.5 H 65 GLY
383 H383 1.49595 11.9982 5.50362 H 54 ALA
384 H384 7 12 5.5 H 66 GLY
385 H385 5.9978 11.9975 5.48968 H 55 ARG
386 H386 1.75 14.3 4.4 H 67 GLY
387 H387 1.75729 15.2944 4.39862 H 61 ALA
388 H388 5.75 14.3 4.4 H 68 GLY
389 H389 5.73613 15.3152 4.39762 H 62 ALA
390 H390 4.75 16.3 8 H 69 GLY
391 H391 8.07953 8.41458 7.74939 H 70 ASP
392 H392 8.18538 9.41209 7.70143 H 73 ARG
393 H393 11.3926 9.01954 5.34352 H 73 ARG
394 H394 11.3133 8.0212 5.47865 H 74 ASN
395 H395 6.85887 8.48559 6.88051 H 70 ASP
396 H396 5.83668 8.06146 5.86712 H 75 ARG
397 H397 12.3 7 5.5 H 77 GLY
398 H398 12.3129 8.0016 5.50144 H 74 ASN
399 H399 5.5 9.5 5.5 H 77 GLY
400 H400 5.99589 9.49193 5.50144 H 71 ASN
401 H401 5.5 6.5 5.5 H 77 GLY
402 H402 5.98921 6.507 5.50229 H 72 ASP
403 H403 5.49335 8.00575 5.50792 H 75 ARG
404 H404 6.5 6.5 5.5 H 77 GLY
405 H405 9 7 4.35 H 77 GLY
406 H406 6.5 9.5 5.5 H 77 GLY
407 H407 9 10 4.35 H 77 GLY
408 H408 8.98525 8.00021 4.36356 H 76 GLY
409 H409 8.98523 9 4.34343 H 76 GLY
410 H410 -0.613722 7.81868 7.7792 H 78 ASP
411 H411 -0.626596 8.80923 7.84278 H 81 ARG
412 H412 -3.83377 8.99951 5.45997 H 81 ARG
413 H413 -3.79806 8.00163 5.41923 H 82 ASN
414 H414 0.366176 7.88874 6.64567 H 78 ASP
415 H415 1.61319 7.96565 5.81482 H 83 ARG
416 H416 -4.8 7 5.5 H 85 GLY
417 H417 -4.79416 7.99056 5.5067 H 82 ASN
418 H418 2 9.5 5.5 H 85 GLY
419 H419 1.50853 9.50033 5.50822 H 79 ASN
420 H420 2 6.5 5.5 H 85 GLY
421 H421 1.49129 6.49674 5.50478 H 80 ASP
422 H422 2.00349 8.00778 5.50515 H 83 ARG
423 H423 1 6.5 5.5 H 85 GLY
424 H424 -1.5 7 4.35 H 85 GLY
425 H425 1 9.5 5.5 H 85 GLY
426 H426 -1.5 10 4.35 H 85 GLY
427 H427 -1.493 7.99087 4.34754 H 84 GLY
428 H428 -1.49557 8.99084 4.34125 H 84 GLY
429 H429 -0.761915 -0.332616 1.45459 H 0 ALA
430 H430 3.73947 0.161122 1.49359 H 1 ARG
431 H431 1.50261 6.79856 4.0355 H 80 ASP
432 H432 1.50781 11.75 6.9829 H 54 ALA
433 H433 1.50295 9.2556 6.98811 H 79 ASN
434 H434 6.00362 11.8556 6.98295 H 55 ARG
435 H435 6.00852 9.34845 6.99451 H 71 ASN
@<TRIPOS>BOND
1 1 2 2
2 1 4 2
3 2 3 2
4 3 5 2
5 6 7 2
6 6 9 2
7 7 8 2
8 8 10 2
9 11 12 2
10 11 18 2
11 12 13 2
12 13 14 2
13 13 15 2
14 14 16 2
15 15 17 2
16 22 23 2
17 23 24 2
18 25 26 2
19 27 28 2
20 29 34 2
21 29 39 2
22 29 30 2
23 30 35 2
24 30 40 2
25 30 31 2
26 31 36 2
27 31 41 2
28 31 32 2
29 32 37 2
30 32 42 2
31 32 33 2
32 33 38 2
33 33 43 2
34 50 51 2
35 50 53 2
36 51 52 2
37 53 54 2
38 54 55 2
39 58 59 2
40 60 61 2
41 61 62 2
42 63 64 2
43 64 65 2
44 66 67 2
45 67 68 2
46 68 69 2
47 69 70 2
48 71 72 2
49 73 74 2
50 74 76 2
51 74 75 2
52 77 78 2
53 80 81 2
54 82 83 2
55 83 84 2
56 85 86 2
57 86 87 2
58 88 89 2
59 89 90 2
60 90 91 2
61 91 92 2
62 93 94 2
63 95 96 2
64 96 98 2
65 96 97 2
66 99 100 2
67 102 103 2
68 102 105 2
69 103 104 2
70 105 106 2
71 106 107 2
72 110 111 2
73 112 113 2
74 113 114 2
75 115 116 2
76 116 117 2
77 118 119 2
78 119 120 2
79 120 121 2
80 121 122 2
81 123 124 2
82 125 126 2
83 126 128 2
84 126 127 2
85 129 130 2
86 132 133 2
87 134 135 2
88 135 136 2
89 137 138 2
90 138 139 2
91 140 141 2
92 141 142 2
93 142 143 2
94 143 144 2
95 145 146 2
96 147 148 2
97 148 150 2
98 148 149 2
99 151 152 2
100 154 155 2
101 154 157 2
102 155 156 2
103 156 158 2
104 159 160 2
105 159 162 2
106 160 161 2
107 161 163 2
108 164 165 2
109 164 171 2
110 165 166 2
111 166 167 2
112 166 168 2
113 167 169 2
114 168 170 2
115 175 176 2
116 176 177 2
117 178 179 2
118 180 181 2
119 182 187 2
120 182 192 2
121 182 183 2
122 183 188 2
123 183 193 2
124 183 184 2
125 184 189 2
126 184 194 2
127 184 185 2
128 185 190 2
129 185 195 2
130 185 186 2
131 186 191 2
132 186 196 2
133 203 204 2
134 205 206 2
135 206 207 2
136 208 209 2
137 209 210 2
138 211 212 2
139 212 213 2
140 213 214 2
141 214 215 2
142 216 217 2
143 218 219 2
144 219 221 2
145 219 220 2
146 222 223 2
147 225 226 2
148 227 228 2
149 228 229 2
150 230 231 2
151 231 232 2
152 233 234 2
153 234 235 2
154 235 236 2
155 236 237 2
156 238 239 2
157 240 241 2
158 241 243 2
159 241 242 2
160 244 245 2
