#
#
#

#
#

@<TRIPOS>MOLECULE
Panda
597 151
SMALL
NO CHARGES


@<TRIPOS>ATOM
1 C1 0.250432 -0.00800462 -0.0125775 C 0 GLY
2 C2 0.263443 -0.195882 0.713393 C 0 GLY
3 C3 0.276455 -0.38376 1.43936 C 0 GLY
4 C4 -0.749136 0.0105994 0.0101518 C 0 GLY
5 C5 -0.723114 -0.365156 1.46209 C 0 GLY
6 C6 2.75618 -0.00172457 0.0108563 C 1 GLY
7 C7 2.75099 0.150393 0.745249 C 1 GLY
8 C8 2.74579 0.30251 1.47964 C 1 GLY
9 C9 3.7561 0.0100251 0.0154986 C 1 GLY
10 C10 3.74571 0.31426 1.48428 C 1 GLY
11 C11 1.51249 1.30401 2.51403 C 2 GLY
12 C12 1.38124 1.10032 1.80426 C 2 GLY
13 C13 1.24999 0.896629 1.09448 C 2 GLY
14 C14 0.567174 1.21187 1.13028 C 2 GLY
15 C15 1.83646 1.31054 0.867246 C 2 GLY
16 C16 -0.104612 1.51829 1.16657 C 2 GLY
17 C17 2.41443 1.7141 0.644554 C 2 GLY
18 C18 1.775 1.7114 3.93359 C 2 GLY
19 H19 0.996205 0.106843 1.44696 H 3 GLY
20 H20 1.84306 0.295532 1.41506 H 4 GLY
21 H21 2.50225 1.29461 2.49261 H 5 GLY
22 C22 1.50823 3.96447 1.04215 C 6 GLY
23 C23 1.49552 4.32721 2.49757 C 6 GLY
24 C24 1.48281 4.68996 3.953 C 6 GLY
25 O25 -0.506789 3.30557 -1.10235 O 7 GLY
26 O26 -0.536482 3.31161 -2.1019 O 7 GLY
27 O27 3.50507 3.30133 -1.09831 O 8 GLY
28 O28 3.38124 3.29077 -2.09056 O 8 GLY
29 O29 -0.56036 4.06555 -2.08104 O 9 GLY
30 O30 0.439576 4.05755 -2.0891 O 9 GLY
31 O31 1.43951 4.04955 -2.09716 O 9 GLY
32 O32 2.43945 4.04155 -2.10522 O 9 GLY
33 O33 3.43938 4.03355 -2.11329 O 9 GLY
34 O34 -0.556327 4.56552 -2.07692 O 9 GLY
35 O35 0.443609 4.55752 -2.08499 O 9 GLY
36 O36 1.44354 4.54952 -2.09305 O 9 GLY
37 O37 2.44348 4.54152 -2.10111 O 9 GLY
38 O38 3.44342 4.53352 -2.10917 O 9 GLY
39 O39 -0.554346 4.31139 -1.57901 O 9 GLY
40 O40 0.44559 4.30339 -1.58707 O 9 GLY
41 O41 1.44553 4.29539 -1.59514 O 9 GLY
42 O42 2.44546 4.28739 -1.6032 O 9 GLY
43 O43 3.4454 4.27939 -1.61126 O 9 GLY
44 O44 1.5145 3.28437 2.49888 O 10 GLY
45 H45 -1.75 0 0 H 11 GLY
46 H46 4.75 0 0 H 12 GLY
47 H47 -0.5 2.3 -1.1 H 13 GLY
48 H48 3.5 2.3 -1.1 H 14 GLY
49 H49 2.5 4.3 2.5 H 15 GLY
50 C50 3.74754 -2.82865 -1.47173 C 16 GLY
51 C51 3.75033 -2.51095 -0.0057591 C 16 GLY
52 C52 3.75313 -2.19325 1.46021 C 16 GLY
53 C53 6.74751 -2.81868 -1.47961 C 16 GLY
54 C54 6.75031 -2.50098 -0.0136394 C 16 GLY
55 C55 6.7531 -2.18328 1.45233 C 16 GLY
56 H56 2.75 -2.5 0 H 17 GLY
57 H57 7.75 -2.5 0 H 18 GLY
58 O58 4.67275 -13.5201 1.41104 O 19 GLY
59 O59 5.93814 -13.567 2.21515 O 19 GLY
60 C60 3.71428 -12.3095 -1.48284 C 20 GLY
61 C61 3.75545 -11.9954 -0.0166809 C 20 GLY
62 C62 3.79663 -11.6812 1.44947 C 20 GLY
63 C63 3.7697 -14.1643 -1.23461 C 21 GLY
64 C64 3.74048 -15.006 0.00657635 C 21 GLY
65 C65 3.71126 -15.8478 1.24776 C 21 GLY
66 O66 5.93156 -12.5744 2.13078 O 22 GLY
67 O67 6.8874 -12.5555 1.83751 O 22 GLY
68 O68 7.84325 -12.5365 1.54425 O 22 GLY
69 O69 8.79909 -12.5176 1.25098 O 22 GLY
70 O70 9.75493 -12.4986 0.957712 O 22 GLY
71 C71 10.0499 -13.5024 -0.00225259 C 23 GLY
72 C72 9.83414 -13.4988 0.974181 C 23 GLY
73 C73 4.65714 -13.2258 -0.711709 C 24 GLY
74 C74 3.62315 -13.4982 0.340282 C 24 GLY
75 C75 2.58917 -13.7705 1.39227 C 24 GLY
76 O76 3.26656 -13.4982 -0.0102097 O 24 GLY
77 C77 6.76383 -13.4989 -1.17188 C 25 GLY
78 C78 6.75325 -12.4991 -1.15427 C 25 GLY
79 H79 10.05 -14.5 0 H 26 GLY
80 O80 8.13566 -6.40276 0.617153 O 27 GLY
81 O81 9.58949 -6.37878 0.985666 O 27 GLY
82 C82 6.73374 -5.31794 -1.46588 C 28 GLY
83 C83 6.74675 -4.99931 -0.000167803 C 28 GLY
84 C84 6.75976 -4.68067 1.46554 C 28 GLY
85 C85 6.75896 -8.74203 -1.31079 C 29 GLY
86 C86 6.75484 -7.9997 -0.0073656 C 29 GLY
87 C87 6.75072 -7.25736 1.29606 C 29 GLY
88 O88 9.64074 -5.38963 0.921052 O 30 GLY
89 O89 10.5096 -5.42485 0.427277 O 30 GLY
90 O90 11.3785 -5.46007 -0.0664978 O 30 GLY
91 O91 12.2474 -5.49529 -0.560273 O 30 GLY
92 O92 13.1162 -5.53051 -1.05405 O 30 GLY
93 C93 13.0402 -6.4973 -0.0254188 C 31 GLY
94 C94 13.1 -6.51758 -1.02342 C 31 GLY
95 C95 7.20964 -6.81361 -1.2071 C 32 GLY
96 C96 6.70932 -6.38712 0.141151 C 32 GLY
97 C97 6.209 -5.96064 1.48941 C 32 GLY
98 O98 6.24154 -6.49575 0.0019259 O 32 GLY
99 C99 9.74618 -6.4955 -1.1464 C 33 GLY
100 C100 9.74397 -5.49551 -1.15068 C 33 GLY
101 H101 13.05 -7.5 0 H 34 GLY
102 C102 -3.7438 -2.13156 -1.4605 C 35 GLY
103 C103 -3.75022 -2.49724 -0.00577488 C 35 GLY
104 C104 -3.75664 -2.86293 1.44895 C 35 GLY
105 C105 -0.743833 -2.13193 -1.44736 C 35 GLY
106 C106 -0.750249 -2.49761 0.00736344 C 35 GLY
107 C107 -0.756665 -2.8633 1.46209 C 35 GLY
108 H108 -4.75 -2.5 0 H 36 GLY
109 H109 0.25 -2.5 0 H 37 GLY
110 O110 -3.6045 -13.9206 0.713421 O 38 GLY
111 O111 -2.13823 -13.9532 0.398811 O 38 GLY
112 C112 -0.74425 -11.624 -1.45899 C 39 GLY
113 C113 -0.751672 -11.9921 -0.00487483 C 39 GLY
114 C114 -0.759093 -12.3602 1.44924 C 39 GLY
115 C115 -0.754154 -14.3902 -1.37032 C 40 GLY
116 C116 -0.742637 -15.0081 -0.00355637 C 40 GLY
117 C117 -0.731119 -15.626 1.36321 C 40 GLY
118 O118 -7.03488 -12.4949 -0.909096 O 41 GLY
119 O119 -6.1417 -12.6058 -0.473271 O 41 GLY
120 O120 -5.24853 -12.7167 -0.0374466 O 41 GLY
121 O121 -4.35536 -12.8276 0.398378 O 41 GLY
122 O122 -3.46219 -12.9385 0.834203 O 41 GLY
123 C123 -7.06563 -13.4911 -0.996227 C 42 GLY
124 C124 -7.05572 -13.4978 0.00370132 C 42 GLY
125 C125 -1.16972 -13.0273 -1.19342 C 43 GLY
126 C126 -0.718015 -13.559 0.134465 C 43 GLY
127 C127 -0.266306 -14.0907 1.46235 C 43 GLY
128 O128 -0.241352 -13.4923 -0.000989194 O 43 GLY
129 C129 -3.74699 -13.5035 -1.148 C 44 GLY
130 C130 -3.76397 -12.5037 -1.13908 C 44 GLY
131 H131 -7.05 -14.5 0 H 45 GLY
132 O132 -5.97522 -6.28673 2.15645 O 46 GLY
133 O133 -4.74726 -6.29786 1.29506 O 46 GLY
134 C134 -3.70929 -4.63992 -1.4606 C 47 GLY
135 C135 -3.74598 -4.99948 -0.00479431 C 47 GLY
136 C136 -3.78266 -5.35904 1.45101 C 47 GLY
137 C137 -3.74792 -8.65635 -1.3461 C 48 GLY
138 C138 -3.75808 -8.01381 0.0092702 C 48 GLY
139 C139 -3.76824 -7.37127 1.36464 C 48 GLY
140 O140 -9.88112 -5.51141 1.04575 O 49 GLY
141 O141 -8.9216 -5.45182 1.321 O 49 GLY
142 O142 -7.96207 -5.39223 1.59626 O 49 GLY
143 O143 -7.00255 -5.33264 1.87151 O 49 GLY
144 O144 -6.04303 -5.27306 2.14676 O 49 GLY
145 C145 -9.89066 -6.50662 0.991714 C 50 GLY
146 C146 -10.0528 -6.50122 0.00495267 C 50 GLY
147 C147 -4.63201 -6.50001 -0.774137 C 51 GLY
148 C148 -3.62442 -6.40381 0.332894 C 51 GLY
149 C149 -2.61683 -6.30761 1.43992 C 51 GLY
150 O150 -3.25766 -6.50227 0.00763616 O 51 GLY
151 C151 -6.75377 -6.4862 -1.16032 C 52 GLY
152 C152 -6.73644 -5.48636 -1.15678 C 52 GLY
153 H153 -10.05 -7.5 0 H 53 GLY
154 C154 2.50697 11.9881 5.48994 C 54 GLY
155 C155 2.51814 11.9028 6.23499 C 54 GLY
156 C156 2.52931 11.8175 6.98004 C 54 GLY
157 C157 1.50709 11.9894 5.50508 C 54 GLY
158 C158 1.52942 11.8188 6.99518 C 54 GLY
159 C159 5.00109 12.001 5.49672 C 55 GLY
160 C160 4.99423 11.9537 6.24519 C 55 GLY
161 C161 4.98737 11.9063 6.99367 C 55 GLY
162 C162 6.001 12.0101 5.50646 C 55 GLY
163 C163 5.98728 11.9153 7.0034 C 55 GLY
164 C164 3.75141 13.3041 8.00462 C 56 GLY
165 C165 3.7394 13.1193 7.27785 C 56 GLY
166 C166 3.7274 12.9344 6.55109 C 56 GLY
167 C167 3.07227 13.2965 6.46982 C 56 GLY
168 C168 4.37198 13.3089 6.4452 C 56 GLY
169 C169 2.42727 13.649 6.39082 C 56 GLY
170 C170 5.00669 13.6736 6.34197 C 56 GLY
171 C171 3.77541 13.6738 9.45815 C 56 GLY
172 H172 3.34012 12.1701 6.83753 H 57 GLY
173 H173 4.12405 12.1896 6.89774 H 58 GLY
174 H174 4.75891 13.2805 7.99554 H 59 GLY
175 C175 3.75064 15.939 6.54511 C 60 GLY
176 C176 3.74125 16.3133 7.99762 C 60 GLY
177 C177 3.73186 16.6876 9.45014 C 60 GLY
178 O178 1.7426 15.2995 4.39782 O 61 GLY
179 O179 1.78384 15.3098 3.39872 O 61 GLY
180 O180 5.72517 15.3119 4.41124 O 62 GLY
181 O181 5.75593 15.3134 3.41172 O 62 GLY
182 O182 1.79318 16.0405 3.40108 O 63 GLY
183 O183 2.79314 16.0484 3.40686 O 63 GLY
184 O184 3.79309 16.0564 3.41263 O 63 GLY
185 O185 4.79304 16.0643 3.41841 O 63 GLY
186 O186 5.79299 16.0722 3.42419 O 63 GLY
187 O187 1.78936 16.5399 3.37663 O 63 GLY
188 O188 2.78931 16.5478 3.38241 O 63 GLY
189 O189 3.78927 16.5557 3.38819 O 63 GLY
190 O190 4.78922 16.5637 3.39396 O 63 GLY
191 O191 5.78917 16.5716 3.39974 O 63 GLY
192 O192 1.78819 16.3146 3.88825 O 63 GLY
193 O193 2.78814 16.3225 3.89403 O 63 GLY
194 O194 3.7881 16.3305 3.8998 O 63 GLY
195 O195 4.78805 16.3384 3.90558 O 63 GLY
196 O196 5.788 16.3464 3.91136 O 63 GLY
197 O197 3.74268 15.2728 8.00255 O 64 GLY
198 H198 0.5 12 5.5 H 65 GLY
199 H199 7 12 5.5 H 66 GLY
200 H200 1.75 14.3 4.4 H 67 GLY
201 H201 5.75 14.3 4.4 H 68 GLY
202 H202 4.75 16.3 8 H 69 GLY
203 O203 7.10576 7.93544 6.63903 O 70 GLY
204 O204 7.97555 7.87123 7.85942 O 70 GLY
205 C205 5.99296 9.62049 4.00607 C 71 GLY
206 C206 5.99785 9.51396 5.50227 C 71 GLY
207 C207 6.00274 9.40744 6.99848 C 71 GLY
208 C208 6.00663 5.76024 4.20583 C 72 GLY
209 C209 5.99996 6.49266 5.51484 C 72 GLY
210 C210 5.99329 7.22507 6.82386 C 72 GLY
211 O211 7.97301 8.85432 7.77383 O 73 GLY
212 O212 8.80485 8.89118 7.22003 O 73 GLY
213 O213 9.63669 8.92805 6.66624 O 73 GLY
214 O214 10.4685 8.96491 6.11244 O 73 GLY
215 O215 11.3004 9.00178 5.55865 O 73 GLY
216 C216 12.291 8.0026 5.5068 C 74 GLY
217 C217 11.2962 7.99509 5.60847 C 74 GLY
218 C218 6.82769 7.9995 4.61988 C 75 GLY
219 C219 5.89184 8.14288 5.78333 C 75 GLY
220 C220 4.95599 8.28627 6.94678 C 75 GLY
221 O221 5.50974 8.00173 5.49337 O 75 GLY
222 C222 9.00358 8.00737 4.35971 C 76 GLY
223 C223 8.99675 9.00718 4.34176 C 76 GLY
224 H224 12.3 7 5.5 H 77 GLY
225 O225 -0.46509 8.2542 7.85841 O 78 GLY
226 O226 0.728103 8.2899 6.95011 O 78 GLY
227 C227 1.50051 9.64179 4.00089 C 79 GLY
228 C228 1.50441 9.48704 5.49288 C 79 GLY
229 C229 1.50832 9.33229 6.98487 C 79 GLY
230 C230 1.48744 6.89807 4.06384 C 80 GLY
231 C231 1.50083 6.48576 5.506 C 80 GLY
232 C232 1.51422 6.07344 6.94816 C 80 GLY
233 O233 -3.78157 8.99843 5.49731 O 81 GLY
234 O234 -2.96434 9.06197 6.07012 O 81 GLY
235 O235 -2.14712 9.1255 6.64293 O 81 GLY
236 O236 -1.32989 9.18903 7.21573 O 81 GLY
237 O237 -0.512669 9.25256 7.78854 O 81 GLY
238 C238 -3.80514 7.99517 5.53128 C 82 GLY
239 C239 -4.80458 7.99811 5.4981 C 82 GLY
240 C240 0.554528 7.82202 4.87948 C 83 GLY
241 C241 1.68169 7.87753 5.86762 C 83 GLY
242 C242 2.80885 7.93304 6.85577 C 83 GLY
243 O243 1.99857 7.99615 5.4995 O 83 GLY
244 C244 -1.4984 8.00272 4.34811 C 84 GLY
245 C245 -1.50233 9.00267 4.33984 C 84 GLY
246 H246 -4.8 7 5.5 H 85 GLY
247 C247 4.74239 24.0078 11.0036 C 86 GLY
248 C248 4.7449 24.0685 11.7512 C 86 GLY
249 C249 4.74741 24.1292 12.4987 C 86 GLY
250 C250 3.74239 24.007 11.0071 C 86 GLY
251 C251 3.74742 24.1284 12.5021 C 86 GLY
252 C252 7.24389 23.9939 10.983 C 87 GLY
253 C253 7.24582 23.9503 11.7317 C 87 GLY
254 C254 7.24775 23.9067 12.4804 C 87 GLY
255 C255 8.24388 23.9943 10.9804 C 87 GLY
256 C256 8.24775 23.9072 12.4779 C 87 GLY
257 C257 5.99643 25.3028 13.4885 C 88 GLY
258 C258 5.98321 25.1881 12.7475 C 88 GLY
259 C259 5.96999 25.0735 12.0064 C 88 GLY
260 C260 5.28882 25.3921 11.9692 C 88 GLY
261 C261 6.58344 25.5031 11.929 C 88 GLY
262 C262 4.61849 25.7017 11.9333 C 88 GLY
263 C263 7.18783 25.922 11.8534 C 88 GLY
264 C264 6.02288 25.5321 14.9706 C 88 GLY
265 H265 5.60193 24.3193 12.3095 H 89 GLY
266 H266 6.50905 24.4167 12.3203 H 90 GLY
267 H267 6.98841 25.2917 13.5121 H 91 GLY
268 C268 5.98325 28.1074 12.023 C 92 GLY
269 C269 6.00052 28.3245 13.5071 C 92 GLY
270 C270 6.01779 28.5416 14.9912 C 92 GLY
271 O271 3.99325 27.2992 9.88739 O 93 GLY
272 O272 3.95518 27.2865 8.8882 O 93 GLY
273 O273 8.00396 27.2991 9.89693 O 94 GLY
274 O274 8.00223 27.2982 8.89694 O 94 GLY
275 O275 3.98899 28.0329 8.84034 O 95 GLY
276 O276 4.98896 28.0373 8.84733 O 95 GLY
277 O277 5.98893 28.0417 8.85433 O 95 GLY
278 O278 6.98889 28.0462 8.86132 O 95 GLY
279 O279 7.98886 28.0506 8.86831 O 95 GLY
280 O280 3.98666 28.5326 8.85737 O 95 GLY
281 O281 4.98662 28.537 8.86437 O 95 GLY
282 O282 5.98659 28.5414 8.87136 O 95 GLY
283 O283 6.98656 28.5459 8.87835 O 95 GLY
284 O284 7.98652 28.5503 8.88534 O 95 GLY
285 O285 3.98441 28.2657 9.34856 O 95 GLY
286 O286 4.98437 28.2701 9.35555 O 95 GLY
287 O287 5.98434 28.2745 9.36254 O 95 GLY
288 O288 6.98431 28.279 9.36953 O 95 GLY
289 O289 7.98427 28.2834 9.37653 O 95 GLY
290 O290 6.00961 27.2876 13.4923 O 96 GLY
291 H291 2.75 24 11 H 97 GLY
292 H292 9.25 24 11 H 98 GLY
293 H293 4 26.3 9.9 H 99 GLY
294 H294 8 26.3 9.9 H 100 GLY
295 H295 7 28.3 13.5 H 101 GLY
296 O296 9.13665 20.1618 12.412 O 102 GLY
297 O297 10.4065 20.1722 13.2103 O 102 GLY
298 C298 8.24916 21.597 9.508 C 103 GLY
299 C299 8.25449 21.5041 11.0051 C 103 GLY
300 C300 8.25981 21.4111 12.5022 C 103 GLY
301 C301 8.22593 17.8319 9.64481 C 104 GLY
302 C302 8.24736 18.504 10.9856 C 104 GLY
303 C303 8.26879 19.1762 12.3264 C 104 GLY
304 O304 10.3116 21.1729 13.1053 O 105 GLY
305 O305 11.1271 21.1215 12.5288 O 105 GLY
306 O306 11.9426 21.0701 11.9523 O 105 GLY
307 O307 12.7581 21.0187 11.3759 O 105 GLY
308 O308 13.5736 20.9673 10.7994 O 105 GLY
309 C309 14.5356 20.0069 11.0115 C 106 GLY
310 C310 13.5381 19.9831 10.9454 C 106 GLY
311 C311 9.15096 19.9462 10.2426 C 107 GLY
312 C312 8.11922 20.1792 11.3062 C 107 GLY
313 C313 7.08749 20.4121 12.3698 C 107 GLY
314 O314 7.76496 20.0012 11.0015 O 107 GLY
315 C315 11.2435 20.0136 9.84082 C 108 GLY
316 C316 11.2549 21.0136 9.83858 C 108 GLY
317 H317 14.55 19 11 H 109 GLY
318 O318 1.87451 20.5464 13.3639 O 110 GLY
319 O319 2.90762 20.619 12.2788 O 110 GLY
320 C320 3.77717 21.3518 9.50735 C 111 GLY
321 C321 3.76603 21.4905 11.0009 C 111 GLY
322 C322 3.75489 21.6292 12.4944 C 111 GLY
323 C323 3.75181 18.8761 9.55142 C 112 GLY
324 C324 3.74342 18.5 11.0035 C 112 GLY
325 C325 3.73503 18.1239 12.4555 C 112 GLY
326 O326 -1.58119 20.9927 10.8982 O 113 GLY
327 O327 -0.786267 21.1172 11.492 O 113 GLY
328 O328 0.00865224 21.2417 12.0858 O 113 GLY
329 O329 0.803571 21.3663 12.6796 O 113 GLY
330 O330 1.59849 21.4908 13.2734 O 113 GLY
331 C331 -1.55046 19.9882 10.9511 C 114 GLY
332 C332 -2.54925 19.9965 10.9995 C 114 GLY
333 C333 2.85229 19.8445 10.2749 C 115 GLY
334 C334 3.89146 20.0078 11.3442 C 115 GLY
335 C335 4.93064 20.1712 12.4135 C 115 GLY
336 O336 4.25073 19.9977 10.9966 O 115 GLY
337 C337 0.755367 19.9978 9.85272 C 116 GLY
338 C338 0.756858 20.9977 9.86387 C 116 GLY
339 H339 -2.55 19 11 H 117 GLY
340 H340 0.250432 -0.00800462 -0.0125775 H 0 GLY
341 H341 2.75618 -0.00172457 0.0108563 H 1 GLY
342 H342 0.276455 -0.38376 1.43936 H 0 GLY
343 H343 0.996205 0.106843 1.44696 H 3 GLY
344 H344 2.74579 0.30251 1.47964 H 1 GLY
345 H345 1.84306 0.295532 1.41506 H 4 GLY
346 H346 1.24999 0.896629 1.09448 H 2 GLY
347 H347 1.51249 1.30401 2.51403 H 2 GLY
348 H348 2.50225 1.29461 2.49261 H 5 GLY
349 H349 1.775 1.7114 3.93359 H 2 GLY
350 H350 1.48281 4.68996 3.953 H 6 GLY
351 H351 -0.536482 3.31161 -2.1019 H 7 GLY
352 H352 -0.56036 4.06555 -2.08104 H 9 GLY
353 H353 3.38124 3.29077 -2.09056 H 8 GLY
354 H354 3.43938 4.03355 -2.11329 H 9 GLY
355 H355 1.49552 4.32721 2.49757 H 6 GLY
356 H356 1.5145 3.28437 2.49888 H 10 GLY
357 H357 -1.75 0 0 H 11 GLY
358 H358 -0.749136 0.0105994 0.0101518 H 0 GLY
359 H359 4.75 0 0 H 12 GLY
360 H360 3.7561 0.0100251 0.0154986 H 1 GLY
361 H361 -0.5 2.3 -1.1 H 13 GLY
362 H362 -0.506789 3.30557 -1.10235 H 7 GLY
363 H363 3.5 2.3 -1.1 H 14 GLY
364 H364 3.50507 3.30133 -1.09831 H 8 GLY
365 H365 2.5 4.3 2.5 H 15 GLY
366 H366 3.75033 -2.51095 -0.0057591 H 16 GLY
367 H367 2.75 -2.5 0 H 17 GLY
368 H368 6.75031 -2.50098 -0.0136394 H 16 GLY
369 H369 7.75 -2.5 0 H 18 GLY
370 H370 5.93814 -13.567 2.21515 H 19 GLY
371 H371 5.93156 -12.5744 2.13078 H 22 GLY
372 H372 9.75493 -12.4986 0.957712 H 22 GLY
373 H373 9.83414 -13.4988 0.974181 H 23 GLY
374 H374 4.67275 -13.5201 1.41104 H 19 GLY
375 H375 3.62315 -13.4982 0.340282 H 24 GLY
376 H376 10.05 -14.5 0 H 26 GLY
377 H377 10.0499 -13.5024 -0.00225259 H 23 GLY
378 H378 3.25 -12 0 H 26 GLY
379 H379 3.75545 -11.9954 -0.0166809 H 20 GLY
380 H380 3.25 -15 0 H 26 GLY
381 H381 3.74048 -15.006 0.00657635 H 21 GLY
382 H382 3.26656 -13.4982 -0.0102097 H 24 GLY
383 H383 4.25 -15 0 H 26 GLY
384 H384 6.75 -14.5 -1.15 H 26 GLY
385 H385 4.25 -12 0 H 26 GLY
386 H386 6.75 -11.5 -1.15 H 26 GLY
387 H387 6.76383 -13.4989 -1.17188 H 25 GLY
388 H388 6.75325 -12.4991 -1.15427 H 25 GLY
389 H389 9.58949 -6.37878 0.985666 H 27 GLY
390 H390 9.64074 -5.38963 0.921052 H 30 GLY
391 H391 13.1162 -5.53051 -1.05405 H 30 GLY
392 H392 13.1 -6.51758 -1.02342 H 31 GLY
393 H393 8.13566 -6.40276 0.617153 H 27 GLY
394 H394 6.70932 -6.38712 0.141151 H 32 GLY
395 H395 13.05 -7.5 0 H 34 GLY
396 H396 13.0402 -6.4973 -0.0254188 H 31 GLY
397 H397 6.25 -5 0 H 34 GLY
398 H398 6.74675 -4.99931 -0.000167803 H 28 GLY
399 H399 6.25 -8 0 H 34 GLY
400 H400 6.75484 -7.9997 -0.0073656 H 29 GLY
401 H401 6.24154 -6.49575 0.0019259 H 32 GLY
402 H402 7.25 -8 0 H 34 GLY
403 H403 9.75 -7.5 -1.15 H 34 GLY
404 H404 7.25 -5 0 H 34 GLY
405 H405 9.75 -4.5 -1.15 H 34 GLY
406 H406 9.74618 -6.4955 -1.1464 H 33 GLY
407 H407 9.74397 -5.49551 -1.15068 H 33 GLY
408 H408 6.7531 -2.18328 1.45233 H 16 GLY
409 H409 6.75976 -4.68067 1.46554 H 28 GLY
410 H410 3.75313 -2.19325 1.46021 H 16 GLY
411 H411 3.79663 -11.6812 1.44947 H 20 GLY
412 H412 -3.75022 -2.49724 -0.00577488 H 35 GLY
413 H413 -4.75 -2.5 0 H 36 GLY
414 H414 -0.750249 -2.49761 0.00736344 H 35 GLY
415 H415 0.25 -2.5 0 H 37 GLY
416 H416 -3.6045 -13.9206 0.713421 H 38 GLY
417 H417 -3.46219 -12.9385 0.834203 H 41 GLY
418 H418 -7.03488 -12.4949 -0.909096 H 41 GLY
419 H419 -7.06563 -13.4911 -0.996227 H 42 GLY
420 H420 -2.13823 -13.9532 0.398811 H 38 GLY
421 H421 -0.718015 -13.559 0.134465 H 43 GLY
422 H422 -7.05 -14.5 0 H 45 GLY
423 H423 -7.05572 -13.4978 0.00370132 H 42 GLY
424 H424 -0.25 -12 0 H 45 GLY
425 H425 -0.751672 -11.9921 -0.00487483 H 39 GLY
426 H426 -0.25 -15 0 H 45 GLY
427 H427 -0.742637 -15.0081 -0.00355637 H 40 GLY
428 H428 -0.241352 -13.4923 -0.000989194 H 43 GLY
429 H429 -1.25 -15 0 H 45 GLY
430 H430 -3.75 -14.5 -1.15 H 45 GLY
431 H431 -1.25 -12 0 H 45 GLY
432 H432 -3.75 -11.5 -1.15 H 45 GLY
433 H433 -3.74699 -13.5035 -1.148 H 44 GLY
434 H434 -3.76397 -12.5037 -1.13908 H 44 GLY
435 H435 -5.97522 -6.28673 2.15645 H 46 GLY
436 H436 -6.04303 -5.27306 2.14676 H 49 GLY
437 H437 -9.88112 -5.51141 1.04575 H 49 GLY
438 H438 -9.89066 -6.50662 0.991714 H 50 GLY
439 H439 -4.74726 -6.29786 1.29506 H 46 GLY
440 H440 -3.62442 -6.40381 0.332894 H 51 GLY
441 H441 -10.05 -7.5 0 H 53 GLY
442 H442 -10.0528 -6.50122 0.00495267 H 50 GLY
443 H443 -3.25 -5 0 H 53 GLY
444 H444 -3.74598 -4.99948 -0.00479431 H 47 GLY
445 H445 -3.25 -8 0 H 53 GLY
446 H446 -3.75808 -8.01381 0.0092702 H 48 GLY
447 H447 -3.25766 -6.50227 0.00763616 H 51 GLY
448 H448 -4.25 -8 0 H 53 GLY
449 H449 -6.75 -7.5 -1.15 H 53 GLY
450 H450 -4.25 -5 0 H 53 GLY
451 H451 -6.75 -4.5 -1.15 H 53 GLY
452 H452 -6.75377 -6.4862 -1.16032 H 52 GLY
453 H453 -6.73644 -5.48636 -1.15678 H 52 GLY
454 H454 -3.75664 -2.86293 1.44895 H 35 GLY
455 H455 -3.78266 -5.35904 1.45101 H 47 GLY
456 H456 -0.756665 -2.8633 1.46209 H 35 GLY
457 H457 -0.759093 -12.3602 1.44924 H 39 GLY
458 H458 2.50697 11.9881 5.48994 H 54 GLY
459 H459 5.00109 12.001 5.49672 H 55 GLY
460 H460 2.52931 11.8175 6.98004 H 54 GLY
461 H461 3.34012 12.1701 6.83753 H 57 GLY
462 H462 4.98737 11.9063 6.99367 H 55 GLY
463 H463 4.12405 12.1896 6.89774 H 58 GLY
464 H464 3.7274 12.9344 6.55109 H 56 GLY
465 H465 3.75141 13.3041 8.00462 H 56 GLY
466 H466 4.75891 13.2805 7.99554 H 59 GLY
467 H467 3.77541 13.6738 9.45815 H 56 GLY
468 H468 3.73186 16.6876 9.45014 H 60 GLY
469 H469 1.78384 15.3098 3.39872 H 61 GLY
470 H470 1.79318 16.0405 3.40108 H 63 GLY
471 H471 5.75593 15.3134 3.41172 H 62 GLY
472 H472 5.79299 16.0722 3.42419 H 63 GLY
473 H473 3.74125 16.3133 7.99762 H 60 GLY
474 H474 3.74268 15.2728 8.00255 H 64 GLY
475 H475 0.5 12 5.5 H 65 GLY
476 H476 1.50709 11.9894 5.50508 H 54 GLY
477 H477 7 12 5.5 H 66 GLY
478 H478 6.001 12.0101 5.50646 H 55 GLY
479 H479 1.75 14.3 4.4 H 67 GLY
480 H480 1.7426 15.2995 4.39782 H 61 GLY
481 H481 5.75 14.3 4.4 H 68 GLY
482 H482 5.72517 15.3119 4.41124 H 62 GLY
483 H483 4.75 16.3 8 H 69 GLY
484 H484 7.97555 7.87123 7.85942 H 70 GLY
485 H485 7.97301 8.85432 7.77383 H 73 GLY
486 H486 11.3004 9.00178 5.55865 H 73 GLY
487 H487 11.2962 7.99509 5.60847 H 74 GLY
488 H488 7.10576 7.93544 6.63903 H 70 GLY
489 H489 5.89184 8.14288 5.78333 H 75 GLY
490 H490 12.3 7 5.5 H 77 GLY
491 H491 12.291 8.0026 5.5068 H 74 GLY
492 H492 5.5 9.5 5.5 H 77 GLY
493 H493 5.99785 9.51396 5.50227 H 71 GLY
494 H494 5.5 6.5 5.5 H 77 GLY
495 H495 5.99996 6.49266 5.51484 H 72 GLY
496 H496 5.50974 8.00173 5.49337 H 75 GLY
497 H497 6.5 6.5 5.5 H 77 GLY
498 H498 9 7 4.35 H 77 GLY
499 H499 6.5 9.5 5.5 H 77 GLY
500 H500 9 10 4.35 H 77 GLY
501 H501 9.00358 8.00737 4.35971 H 76 GLY
502 H502 8.99675 9.00718 4.34176 H 76 GLY
503 H503 -0.46509 8.2542 7.85841 H 78 GLY
504 H504 -0.512669 9.25256 7.78854 H 81 GLY
505 H505 -3.78157 8.99843 5.49731 H 81 GLY
506 H506 -3.80514 7.99517 5.53128 H 82 GLY
507 H507 0.728103 8.2899 6.95011 H 78 GLY
508 H508 1.68169 7.87753 5.86762 H 83 GLY
509 H509 -4.8 7 5.5 H 85 GLY
510 H510 -4.80458 7.99811 5.4981 H 82 GLY
511 H511 2 9.5 5.5 H 85 GLY
512 H512 1.50441 9.48704 5.49288 H 79 GLY
513 H513 2 6.5 5.5 H 85 GLY
514 H514 1.50083 6.48576 5.506 H 80 GLY
515 H515 1.99857 7.99615 5.4995 H 83 GLY
516 H516 1 6.5 5.5 H 85 GLY
517 H517 -1.5 7 4.35 H 85 GLY
518 H518 1 9.5 5.5 H 85 GLY
519 H519 -1.5 10 4.35 H 85 GLY
520 H520 -1.4984 8.00272 4.34811 H 84 GLY
521 H521 -1.50233 9.00267 4.33984 H 84 GLY
522 H522 4.74239 24.0078 11.0036 H 86 GLY
523 H523 7.24389 23.9939 10.983 H 87 GLY
524 H524 4.74741 24.1292 12.4987 H 86 GLY
525 H525 5.60193 24.3193 12.3095 H 89 GLY
526 H526 7.24775 23.9067 12.4804 H 87 GLY
527 H527 6.50905 24.4167 12.3203 H 90 GLY
528 H528 5.96999 25.0735 12.0064 H 88 GLY
529 H529 5.99643 25.3028 13.4885 H 88 GLY
530 H530 6.98841 25.2917 13.5121 H 91 GLY
531 H531 6.02288 25.5321 14.9706 H 88 GLY
532 H532 6.01779 28.5416 14.9912 H 92 GLY
533 H533 3.95518 27.2865 8.8882 H 93 GLY
534 H534 3.98899 28.0329 8.84034 H 95 GLY
535 H535 8.00223 27.2982 8.89694 H 94 GLY
536 H536 7.98886 28.0506 8.86831 H 95 GLY
537 H537 6.00052 28.3245 13.5071 H 92 GLY
538 H538 6.00961 27.2876 13.4923 H 96 GLY
539 H539 2.75 24 11 H 97 GLY
540 H540 3.74239 24.007 11.0071 H 86 GLY
541 H541 9.25 24 11 H 98 GLY
542 H542 8.24388 23.9943 10.9804 H 87 GLY
543 H543 4 26.3 9.9 H 99 GLY
544 H544 3.99325 27.2992 9.88739 H 93 GLY
545 H545 8 26.3 9.9 H 100 GLY
546 H546 8.00396 27.2991 9.89693 H 94 GLY
547 H547 7 28.3 13.5 H 101 GLY
548 H548 10.4065 20.1722 13.2103 H 102 GLY
549 H549 10.3116 21.1729 13.1053 H 105 GLY
550 H550 13.5736 20.9673 10.7994 H 105 GLY
551 H551 13.5381 19.9831 10.9454 H 106 GLY
552 H552 9.13665 20.1618 12.412 H 102 GLY
553 H553 8.11922 20.1792 11.3062 H 107 GLY
554 H554 14.55 19 11 H 109 GLY
555 H555 14.5356 20.0069 11.0115 H 106 GLY
556 H556 7.75 21.5 11 H 109 GLY
557 H557 8.25449 21.5041 11.0051 H 103 GLY
558 H558 7.75 18.5 11 H 109 GLY
559 H559 8.24736 18.504 10.9856 H 104 GLY
560 H560 7.76496 20.0012 11.0015 H 107 GLY
561 H561 8.75 18.5 11 H 109 GLY
562 H562 11.25 19 9.85 H 109 GLY
563 H563 8.75 21.5 11 H 109 GLY
564 H564 11.25 22 9.85 H 109 GLY
565 H565 11.2435 20.0136 9.84082 H 108 GLY
566 H566 11.2549 21.0136 9.83858 H 108 GLY
567 H567 1.87451 20.5464 13.3639 H 110 GLY
568 H568 1.59849 21.4908 13.2734 H 113 GLY
569 H569 -1.58119 20.9927 10.8982 H 113 GLY
570 H570 -1.55046 19.9882 10.9511 H 114 GLY
571 H571 2.90762 20.619 12.2788 H 110 GLY
572 H572 3.89146 20.0078 11.3442 H 115 GLY
573 H573 -2.55 19 11 H 117 GLY
574 H574 -2.54925 19.9965 10.9995 H 114 GLY
575 H575 4.25 21.5 11 H 117 GLY
576 H576 3.76603 21.4905 11.0009 H 111 GLY
577 H577 4.25 18.5 11 H 117 GLY
578 H578 3.74342 18.5 11.0035 H 112 GLY
579 H579 4.25073 19.9977 10.9966 H 115 GLY
580 H580 3.25 18.5 11 H 117 GLY
581 H581 0.75 19 9.85 H 117 GLY
582 H582 3.25 21.5 11 H 117 GLY
583 H583 0.75 22 9.85 H 117 GLY
584 H584 0.755367 19.9978 9.85272 H 116 GLY
585 H585 0.756858 20.9977 9.86387 H 116 GLY
586 H586 -0.723114 -0.365156 1.46209 H 0 GLY
587 H587 3.74571 0.31426 1.48428 H 1 GLY
588 H588 1.48744 6.89807 4.06384 H 80 GLY
589 H589 1.52942 11.8188 6.99518 H 54 GLY
590 H590 1.50832 9.33229 6.98487 H 79 GLY
591 H591 5.98728 11.9153 7.0034 H 55 GLY
592 H592 6.00274 9.40744 6.99848 H 71 GLY
593 H593 3.75181 18.8761 9.55142 H 112 GLY
594 H594 3.74742 24.1284 12.5021 H 86 GLY
595 H595 3.75489 21.6292 12.4944 H 111 GLY
596 H596 8.24775 23.9072 12.4779 H 87 GLY
597 H597 8.25981 21.4111 12.5022 H 103 GLY
@<TRIPOS>BOND
1 340 341 1
2 347 348 1
3 350 588 1
4 351 352 1
5 353 354 1
6 355 365 1
7 357 358 1
8 359 360 1
9 361 362 1
10 363 364 1
11 366 367 1
12 368 369 1
13 370 371 1
14 372 373 1
15 374 375 1
16 376 377 1
17 378 379 1
18 378 382 1
19 378 382 1
20 380 381 1
21 380 382 1
22 380 382 1
23 383 384 1
24 384 387 1
25 385 386 1
26 386 388 1
27 389 390 1
28 391 392 1
29 393 394 1
30 395 396 1
31 397 398 1
32 397 401 1
33 397 401 1
34 399 400 1
35 399 401 1
36 399 401 1
37 402 403 1
38 403 406 1
39 404 405 1
40 405 407 1
41 410 587 1
42 412 413 1
43 414 415 1
44 416 417 1
45 418 419 1
46 420 421 1
47 422 423 1
48 424 425 1
49 424 428 1
50 424 428 1
51 426 427 1
52 426 428 1
53 426 428 1
54 429 430 1
55 430 433 1
56 431 432 1
57 432 434 1
58 435 436 1
59 437 438 1
60 439 440 1
61 441 442 1
62 443 444 1
63 443 447 1
64 443 447 1
65 445 446 1
66 445 447 1
67 445 447 1
68 448 449 1
69 449 452 1
70 450 451 1
71 451 453 1
72 456 586 1
73 458 459 1
74 465 466 1
75 468 593 1
76 469 470 1
77 471 472 1
78 473 483 1
79 475 476 1
80 477 478 1
81 479 480 1
82 481 482 1
83 484 485 1
84 486 487 1
85 488 489 1
86 490 491 1
87 492 493 1
88 492 496 1
89 492 496 1
90 494 495 1
91 494 496 1
92 494 496 1
93 497 498 1
94 498 501 1
95 499 500 1
96 500 502 1
97 503 504 1
98 505 506 1
99 507 508 1
100 509 510 1
101 511 512 1
102 511 515 1
103 511 515 1
104 513 514 1
105 513 515 1
106 513 515 1
107 516 517 1
108 517 520 1
109 518 519 1
110 519 521 1
111 522 523 1
112 529 530 1
113 533 534 1
114 535 536 1
115 537 547 1
116 539 540 1
117 541 542 1
118 543 544 1
119 545 546 1
120 548 549 1
121 550 551 1
122 552 553 1
123 554 555 1
124 556 557 1
125 556 560 1
126 556 560 1
127 558 559 1
128 558 560 1
129 558 560 1
130 561 562 1
131 562 565 1
132 563 564 1
133 564 566 1
134 567 568 1
135 569 570 1
136 571 572 1
137 573 574 1
138 575 576 1
139 575 579 1
140 575 579 1
141 577 578 1
142 577 579 1
143 577 579 1
144 580 581 1
145 581 584 1
146 582 583 1
147 583 585 1
148 589 590 1
149 591 592 1
150 594 595 1
151 596 597 1
